version 2
run xHttpGTITMTorrentWithCache-0-20160103-09:20:19-5580
attr configname xHttpGTITMTorrentWithCache
attr datetime 20160103-09:20:19
attr experiment xHttpGTITMTorrentWithCache
attr inifile /home/achraf/Development/omnetpp-4.1/projects/OverSim-20101103/simulations/omnetpp.ini
attr iterationvars ""
attr iterationvars2 $repetition=0
attr measurement ""
attr network oversim.underlay.inetunderlay.GTITM_TS_IPv4Network
attr processid 5580
attr repetition 0
attr replication #0
attr resultdir results
attr runnumber 0
attr seedset 0

scalar GTITM_TS_IPv4Network.underlayConfigurator 	"Terminals added" 	33
scalar GTITM_TS_IPv4Network.underlayConfigurator 	"Terminals removed" 	0
scalar GTITM_TS_IPv4Network.backboneRouter[0].networkLayer.ip 	"datagrams multicast" 	0
scalar GTITM_TS_IPv4Network.backboneRouter[0].networkLayer.ip 	"datagrams locally delivered" 	0
scalar GTITM_TS_IPv4Network.backboneRouter[0].networkLayer.ip 	"datagrams dropped" 	0
scalar GTITM_TS_IPv4Network.backboneRouter[0].networkLayer.ip 	"datagrams unroutable" 	0
scalar GTITM_TS_IPv4Network.backboneRouter[0].networkLayer.ip 	"datagrams forwarded" 	1021074
scalar GTITM_TS_IPv4Network.backboneRouter[0].networkLayer.arp 	"ARP requests sent" 	0
scalar GTITM_TS_IPv4Network.backboneRouter[0].networkLayer.arp 	"ARP replies sent" 	0
scalar GTITM_TS_IPv4Network.backboneRouter[0].networkLayer.arp 	"ARP resolutions" 	0
scalar GTITM_TS_IPv4Network.backboneRouter[0].networkLayer.arp 	"failed ARP resolutions" 	0
scalar GTITM_TS_IPv4Network.backboneRouter[0].ppp[0].queue 	queuedrops:count 	0
attr source  qdrop
attr title  "packets dropped by queue, count"
scalar GTITM_TS_IPv4Network.backboneRouter[0].ppp[0].queue 	queuercvd:count 	0
attr source  qrcvd
attr title  "packets received by queue, count"
scalar GTITM_TS_IPv4Network.backboneRouter[0].ppp[1].queue 	queuedrops:count 	0
attr source  qdrop
attr title  "packets dropped by queue, count"
scalar GTITM_TS_IPv4Network.backboneRouter[0].ppp[1].queue 	queuercvd:count 	0
attr source  qrcvd
attr title  "packets received by queue, count"
scalar GTITM_TS_IPv4Network.backboneRouter[0].ppp[2].queue 	queuedrops:count 	0
attr source  qdrop
attr title  "packets dropped by queue, count"
scalar GTITM_TS_IPv4Network.backboneRouter[0].ppp[2].queue 	queuercvd:count 	530972
attr source  qrcvd
attr title  "packets received by queue, count"
scalar GTITM_TS_IPv4Network.backboneRouter[0].ppp[3].queue 	queuedrops:count 	0
attr source  qdrop
attr title  "packets dropped by queue, count"
scalar GTITM_TS_IPv4Network.backboneRouter[0].ppp[3].queue 	queuercvd:count 	490102
attr source  qrcvd
attr title  "packets received by queue, count"
scalar GTITM_TS_IPv4Network.backboneRouter[0].ppp[4].queue 	queuedrops:count 	0
attr source  qdrop
attr title  "packets dropped by queue, count"
scalar GTITM_TS_IPv4Network.backboneRouter[0].ppp[4].queue 	queuercvd:count 	0
attr source  qrcvd
attr title  "packets received by queue, count"
scalar GTITM_TS_IPv4Network.backboneRouter[0].ppp[5].queue 	queuedrops:count 	0
attr source  qdrop
attr title  "packets dropped by queue, count"
scalar GTITM_TS_IPv4Network.backboneRouter[0].ppp[5].queue 	queuercvd:count 	0
attr source  qrcvd
attr title  "packets received by queue, count"
scalar GTITM_TS_IPv4Network.backboneRouter[0].ppp[6].queue 	queuedrops:count 	0
attr source  qdrop
attr title  "packets dropped by queue, count"
scalar GTITM_TS_IPv4Network.backboneRouter[0].ppp[6].queue 	queuercvd:count 	0
attr source  qrcvd
attr title  "packets received by queue, count"
scalar GTITM_TS_IPv4Network.backboneRouter[0].ppp[7].queue 	queuedrops:count 	0
attr source  qdrop
attr title  "packets dropped by queue, count"
scalar GTITM_TS_IPv4Network.backboneRouter[0].ppp[7].queue 	queuercvd:count 	0
attr source  qrcvd
attr title  "packets received by queue, count"
scalar GTITM_TS_IPv4Network.backboneRouter[0].ppp[8].queue 	queuedrops:count 	0
attr source  qdrop
attr title  "packets dropped by queue, count"
scalar GTITM_TS_IPv4Network.backboneRouter[0].ppp[8].queue 	queuercvd:count 	0
attr source  qrcvd
attr title  "packets received by queue, count"
scalar GTITM_TS_IPv4Network.backboneRouter[0].ppp[9].queue 	queuedrops:count 	0
attr source  qdrop
attr title  "packets dropped by queue, count"
scalar GTITM_TS_IPv4Network.backboneRouter[0].ppp[9].queue 	queuercvd:count 	0
attr source  qrcvd
attr title  "packets received by queue, count"
scalar GTITM_TS_IPv4Network.backboneRouter[0].ppp[10].queue 	queuedrops:count 	0
attr source  qdrop
attr title  "packets dropped by queue, count"
scalar GTITM_TS_IPv4Network.backboneRouter[0].ppp[10].queue 	queuercvd:count 	0
attr source  qrcvd
attr title  "packets received by queue, count"
scalar GTITM_TS_IPv4Network.backboneRouter[0].ppp[11].queue 	queuedrops:count 	0
attr source  qdrop
attr title  "packets dropped by queue, count"
scalar GTITM_TS_IPv4Network.backboneRouter[0].ppp[11].queue 	queuercvd:count 	0
attr source  qrcvd
attr title  "packets received by queue, count"
scalar GTITM_TS_IPv4Network.backboneRouter[0].ppp[12].queue 	queuedrops:count 	0
attr source  qdrop
attr title  "packets dropped by queue, count"
scalar GTITM_TS_IPv4Network.backboneRouter[0].ppp[12].queue 	queuercvd:count 	0
attr source  qrcvd
attr title  "packets received by queue, count"
scalar GTITM_TS_IPv4Network.backboneRouter[1].networkLayer.ip 	"datagrams multicast" 	0
scalar GTITM_TS_IPv4Network.backboneRouter[1].networkLayer.ip 	"datagrams locally delivered" 	0
scalar GTITM_TS_IPv4Network.backboneRouter[1].networkLayer.ip 	"datagrams dropped" 	0
scalar GTITM_TS_IPv4Network.backboneRouter[1].networkLayer.ip 	"datagrams unroutable" 	0
scalar GTITM_TS_IPv4Network.backboneRouter[1].networkLayer.ip 	"datagrams forwarded" 	0
scalar GTITM_TS_IPv4Network.backboneRouter[1].networkLayer.arp 	"ARP requests sent" 	0
scalar GTITM_TS_IPv4Network.backboneRouter[1].networkLayer.arp 	"ARP replies sent" 	0
scalar GTITM_TS_IPv4Network.backboneRouter[1].networkLayer.arp 	"ARP resolutions" 	0
scalar GTITM_TS_IPv4Network.backboneRouter[1].networkLayer.arp 	"failed ARP resolutions" 	0
scalar GTITM_TS_IPv4Network.backboneRouter[1].ppp[0].queue 	queuedrops:count 	0
attr source  qdrop
attr title  "packets dropped by queue, count"
scalar GTITM_TS_IPv4Network.backboneRouter[1].ppp[0].queue 	queuercvd:count 	0
attr source  qrcvd
attr title  "packets received by queue, count"
scalar GTITM_TS_IPv4Network.backboneRouter[1].ppp[1].queue 	queuedrops:count 	0
attr source  qdrop
attr title  "packets dropped by queue, count"
scalar GTITM_TS_IPv4Network.backboneRouter[1].ppp[1].queue 	queuercvd:count 	0
attr source  qrcvd
attr title  "packets received by queue, count"
scalar GTITM_TS_IPv4Network.backboneRouter[1].ppp[2].queue 	queuedrops:count 	0
attr source  qdrop
attr title  "packets dropped by queue, count"
scalar GTITM_TS_IPv4Network.backboneRouter[1].ppp[2].queue 	queuercvd:count 	0
attr source  qrcvd
attr title  "packets received by queue, count"
scalar GTITM_TS_IPv4Network.backboneRouter[1].ppp[3].queue 	queuedrops:count 	0
attr source  qdrop
attr title  "packets dropped by queue, count"
scalar GTITM_TS_IPv4Network.backboneRouter[1].ppp[3].queue 	queuercvd:count 	0
attr source  qrcvd
attr title  "packets received by queue, count"
scalar GTITM_TS_IPv4Network.backboneRouter[1].ppp[4].queue 	queuedrops:count 	0
attr source  qdrop
attr title  "packets dropped by queue, count"
scalar GTITM_TS_IPv4Network.backboneRouter[1].ppp[4].queue 	queuercvd:count 	0
attr source  qrcvd
attr title  "packets received by queue, count"
scalar GTITM_TS_IPv4Network.backboneRouter[1].ppp[5].queue 	queuedrops:count 	0
attr source  qdrop
attr title  "packets dropped by queue, count"
scalar GTITM_TS_IPv4Network.backboneRouter[1].ppp[5].queue 	queuercvd:count 	0
attr source  qrcvd
attr title  "packets received by queue, count"
scalar GTITM_TS_IPv4Network.backboneRouter[1].ppp[6].queue 	queuedrops:count 	0
attr source  qdrop
attr title  "packets dropped by queue, count"
scalar GTITM_TS_IPv4Network.backboneRouter[1].ppp[6].queue 	queuercvd:count 	0
attr source  qrcvd
attr title  "packets received by queue, count"
scalar GTITM_TS_IPv4Network.backboneRouter[1].ppp[7].queue 	queuedrops:count 	0
attr source  qdrop
attr title  "packets dropped by queue, count"
scalar GTITM_TS_IPv4Network.backboneRouter[1].ppp[7].queue 	queuercvd:count 	0
attr source  qrcvd
attr title  "packets received by queue, count"
scalar GTITM_TS_IPv4Network.backboneRouter[1].ppp[8].queue 	queuedrops:count 	0
attr source  qdrop
attr title  "packets dropped by queue, count"
scalar GTITM_TS_IPv4Network.backboneRouter[1].ppp[8].queue 	queuercvd:count 	0
attr source  qrcvd
attr title  "packets received by queue, count"
scalar GTITM_TS_IPv4Network.backboneRouter[1].ppp[9].queue 	queuedrops:count 	0
attr source  qdrop
attr title  "packets dropped by queue, count"
scalar GTITM_TS_IPv4Network.backboneRouter[1].ppp[9].queue 	queuercvd:count 	0
attr source  qrcvd
attr title  "packets received by queue, count"
scalar GTITM_TS_IPv4Network.backboneRouter[1].ppp[10].queue 	queuedrops:count 	0
attr source  qdrop
attr title  "packets dropped by queue, count"
scalar GTITM_TS_IPv4Network.backboneRouter[1].ppp[10].queue 	queuercvd:count 	0
attr source  qrcvd
attr title  "packets received by queue, count"
scalar GTITM_TS_IPv4Network.backboneRouter[1].ppp[11].queue 	queuedrops:count 	0
attr source  qdrop
attr title  "packets dropped by queue, count"
scalar GTITM_TS_IPv4Network.backboneRouter[1].ppp[11].queue 	queuercvd:count 	0
attr source  qrcvd
attr title  "packets received by queue, count"
scalar GTITM_TS_IPv4Network.backboneRouter[1].ppp[12].queue 	queuedrops:count 	0
attr source  qdrop
attr title  "packets dropped by queue, count"
scalar GTITM_TS_IPv4Network.backboneRouter[1].ppp[12].queue 	queuercvd:count 	0
attr source  qrcvd
attr title  "packets received by queue, count"
scalar GTITM_TS_IPv4Network.backboneRouter[2].networkLayer.ip 	"datagrams multicast" 	0
scalar GTITM_TS_IPv4Network.backboneRouter[2].networkLayer.ip 	"datagrams locally delivered" 	0
scalar GTITM_TS_IPv4Network.backboneRouter[2].networkLayer.ip 	"datagrams dropped" 	0
scalar GTITM_TS_IPv4Network.backboneRouter[2].networkLayer.ip 	"datagrams unroutable" 	0
scalar GTITM_TS_IPv4Network.backboneRouter[2].networkLayer.ip 	"datagrams forwarded" 	0
scalar GTITM_TS_IPv4Network.backboneRouter[2].networkLayer.arp 	"ARP requests sent" 	0
scalar GTITM_TS_IPv4Network.backboneRouter[2].networkLayer.arp 	"ARP replies sent" 	0
scalar GTITM_TS_IPv4Network.backboneRouter[2].networkLayer.arp 	"ARP resolutions" 	0
scalar GTITM_TS_IPv4Network.backboneRouter[2].networkLayer.arp 	"failed ARP resolutions" 	0
scalar GTITM_TS_IPv4Network.backboneRouter[2].ppp[0].queue 	queuedrops:count 	0
attr source  qdrop
attr title  "packets dropped by queue, count"
scalar GTITM_TS_IPv4Network.backboneRouter[2].ppp[0].queue 	queuercvd:count 	0
attr source  qrcvd
attr title  "packets received by queue, count"
scalar GTITM_TS_IPv4Network.backboneRouter[2].ppp[1].queue 	queuedrops:count 	0
attr source  qdrop
attr title  "packets dropped by queue, count"
scalar GTITM_TS_IPv4Network.backboneRouter[2].ppp[1].queue 	queuercvd:count 	0
attr source  qrcvd
attr title  "packets received by queue, count"
scalar GTITM_TS_IPv4Network.backboneRouter[2].ppp[2].queue 	queuedrops:count 	0
attr source  qdrop
attr title  "packets dropped by queue, count"
scalar GTITM_TS_IPv4Network.backboneRouter[2].ppp[2].queue 	queuercvd:count 	0
attr source  qrcvd
attr title  "packets received by queue, count"
scalar GTITM_TS_IPv4Network.backboneRouter[2].ppp[3].queue 	queuedrops:count 	0
attr source  qdrop
attr title  "packets dropped by queue, count"
scalar GTITM_TS_IPv4Network.backboneRouter[2].ppp[3].queue 	queuercvd:count 	0
attr source  qrcvd
attr title  "packets received by queue, count"
scalar GTITM_TS_IPv4Network.backboneRouter[2].ppp[4].queue 	queuedrops:count 	0
attr source  qdrop
attr title  "packets dropped by queue, count"
scalar GTITM_TS_IPv4Network.backboneRouter[2].ppp[4].queue 	queuercvd:count 	0
attr source  qrcvd
attr title  "packets received by queue, count"
scalar GTITM_TS_IPv4Network.backboneRouter[2].ppp[5].queue 	queuedrops:count 	0
attr source  qdrop
attr title  "packets dropped by queue, count"
scalar GTITM_TS_IPv4Network.backboneRouter[2].ppp[5].queue 	queuercvd:count 	0
attr source  qrcvd
attr title  "packets received by queue, count"
scalar GTITM_TS_IPv4Network.backboneRouter[2].ppp[6].queue 	queuedrops:count 	0
attr source  qdrop
attr title  "packets dropped by queue, count"
scalar GTITM_TS_IPv4Network.backboneRouter[2].ppp[6].queue 	queuercvd:count 	0
attr source  qrcvd
attr title  "packets received by queue, count"
scalar GTITM_TS_IPv4Network.backboneRouter[2].ppp[7].queue 	queuedrops:count 	0
attr source  qdrop
attr title  "packets dropped by queue, count"
scalar GTITM_TS_IPv4Network.backboneRouter[2].ppp[7].queue 	queuercvd:count 	0
attr source  qrcvd
attr title  "packets received by queue, count"
scalar GTITM_TS_IPv4Network.backboneRouter[2].ppp[8].queue 	queuedrops:count 	0
attr source  qdrop
attr title  "packets dropped by queue, count"
scalar GTITM_TS_IPv4Network.backboneRouter[2].ppp[8].queue 	queuercvd:count 	0
attr source  qrcvd
attr title  "packets received by queue, count"
scalar GTITM_TS_IPv4Network.backboneRouter[2].ppp[9].queue 	queuedrops:count 	0
attr source  qdrop
attr title  "packets dropped by queue, count"
scalar GTITM_TS_IPv4Network.backboneRouter[2].ppp[9].queue 	queuercvd:count 	0
attr source  qrcvd
attr title  "packets received by queue, count"
scalar GTITM_TS_IPv4Network.backboneRouter[2].ppp[10].queue 	queuedrops:count 	0
attr source  qdrop
attr title  "packets dropped by queue, count"
scalar GTITM_TS_IPv4Network.backboneRouter[2].ppp[10].queue 	queuercvd:count 	0
attr source  qrcvd
attr title  "packets received by queue, count"
scalar GTITM_TS_IPv4Network.backboneRouter[2].ppp[11].queue 	queuedrops:count 	0
attr source  qdrop
attr title  "packets dropped by queue, count"
scalar GTITM_TS_IPv4Network.backboneRouter[2].ppp[11].queue 	queuercvd:count 	0
attr source  qrcvd
attr title  "packets received by queue, count"
scalar GTITM_TS_IPv4Network.backboneRouter[2].ppp[12].queue 	queuedrops:count 	0
attr source  qdrop
attr title  "packets dropped by queue, count"
scalar GTITM_TS_IPv4Network.backboneRouter[2].ppp[12].queue 	queuercvd:count 	0
attr source  qrcvd
attr title  "packets received by queue, count"
scalar GTITM_TS_IPv4Network.backboneRouter[3].networkLayer.ip 	"datagrams multicast" 	0
scalar GTITM_TS_IPv4Network.backboneRouter[3].networkLayer.ip 	"datagrams locally delivered" 	0
scalar GTITM_TS_IPv4Network.backboneRouter[3].networkLayer.ip 	"datagrams dropped" 	0
scalar GTITM_TS_IPv4Network.backboneRouter[3].networkLayer.ip 	"datagrams unroutable" 	0
scalar GTITM_TS_IPv4Network.backboneRouter[3].networkLayer.ip 	"datagrams forwarded" 	0
scalar GTITM_TS_IPv4Network.backboneRouter[3].networkLayer.arp 	"ARP requests sent" 	0
scalar GTITM_TS_IPv4Network.backboneRouter[3].networkLayer.arp 	"ARP replies sent" 	0
scalar GTITM_TS_IPv4Network.backboneRouter[3].networkLayer.arp 	"ARP resolutions" 	0
scalar GTITM_TS_IPv4Network.backboneRouter[3].networkLayer.arp 	"failed ARP resolutions" 	0
scalar GTITM_TS_IPv4Network.backboneRouter[3].ppp[0].queue 	queuedrops:count 	0
attr source  qdrop
attr title  "packets dropped by queue, count"
scalar GTITM_TS_IPv4Network.backboneRouter[3].ppp[0].queue 	queuercvd:count 	0
attr source  qrcvd
attr title  "packets received by queue, count"
scalar GTITM_TS_IPv4Network.backboneRouter[3].ppp[1].queue 	queuedrops:count 	0
attr source  qdrop
attr title  "packets dropped by queue, count"
scalar GTITM_TS_IPv4Network.backboneRouter[3].ppp[1].queue 	queuercvd:count 	0
attr source  qrcvd
attr title  "packets received by queue, count"
scalar GTITM_TS_IPv4Network.backboneRouter[3].ppp[2].queue 	queuedrops:count 	0
attr source  qdrop
attr title  "packets dropped by queue, count"
scalar GTITM_TS_IPv4Network.backboneRouter[3].ppp[2].queue 	queuercvd:count 	0
attr source  qrcvd
attr title  "packets received by queue, count"
scalar GTITM_TS_IPv4Network.backboneRouter[3].ppp[3].queue 	queuedrops:count 	0
attr source  qdrop
attr title  "packets dropped by queue, count"
scalar GTITM_TS_IPv4Network.backboneRouter[3].ppp[3].queue 	queuercvd:count 	0
attr source  qrcvd
attr title  "packets received by queue, count"
scalar GTITM_TS_IPv4Network.backboneRouter[3].ppp[4].queue 	queuedrops:count 	0
attr source  qdrop
attr title  "packets dropped by queue, count"
scalar GTITM_TS_IPv4Network.backboneRouter[3].ppp[4].queue 	queuercvd:count 	0
attr source  qrcvd
attr title  "packets received by queue, count"
scalar GTITM_TS_IPv4Network.backboneRouter[3].ppp[5].queue 	queuedrops:count 	0
attr source  qdrop
attr title  "packets dropped by queue, count"
scalar GTITM_TS_IPv4Network.backboneRouter[3].ppp[5].queue 	queuercvd:count 	0
attr source  qrcvd
attr title  "packets received by queue, count"
scalar GTITM_TS_IPv4Network.backboneRouter[3].ppp[6].queue 	queuedrops:count 	0
attr source  qdrop
attr title  "packets dropped by queue, count"
scalar GTITM_TS_IPv4Network.backboneRouter[3].ppp[6].queue 	queuercvd:count 	0
attr source  qrcvd
attr title  "packets received by queue, count"
scalar GTITM_TS_IPv4Network.backboneRouter[3].ppp[7].queue 	queuedrops:count 	0
attr source  qdrop
attr title  "packets dropped by queue, count"
scalar GTITM_TS_IPv4Network.backboneRouter[3].ppp[7].queue 	queuercvd:count 	0
attr source  qrcvd
attr title  "packets received by queue, count"
scalar GTITM_TS_IPv4Network.backboneRouter[3].ppp[8].queue 	queuedrops:count 	0
attr source  qdrop
attr title  "packets dropped by queue, count"
scalar GTITM_TS_IPv4Network.backboneRouter[3].ppp[8].queue 	queuercvd:count 	0
attr source  qrcvd
attr title  "packets received by queue, count"
scalar GTITM_TS_IPv4Network.backboneRouter[3].ppp[9].queue 	queuedrops:count 	0
attr source  qdrop
attr title  "packets dropped by queue, count"
scalar GTITM_TS_IPv4Network.backboneRouter[3].ppp[9].queue 	queuercvd:count 	0
attr source  qrcvd
attr title  "packets received by queue, count"
scalar GTITM_TS_IPv4Network.backboneRouter[3].ppp[10].queue 	queuedrops:count 	0
attr source  qdrop
attr title  "packets dropped by queue, count"
scalar GTITM_TS_IPv4Network.backboneRouter[3].ppp[10].queue 	queuercvd:count 	0
attr source  qrcvd
attr title  "packets received by queue, count"
scalar GTITM_TS_IPv4Network.backboneRouter[3].ppp[11].queue 	queuedrops:count 	0
attr source  qdrop
attr title  "packets dropped by queue, count"
scalar GTITM_TS_IPv4Network.backboneRouter[3].ppp[11].queue 	queuercvd:count 	0
attr source  qrcvd
attr title  "packets received by queue, count"
scalar GTITM_TS_IPv4Network.backboneRouter[3].ppp[12].queue 	queuedrops:count 	0
attr source  qdrop
attr title  "packets dropped by queue, count"
scalar GTITM_TS_IPv4Network.backboneRouter[3].ppp[12].queue 	queuercvd:count 	0
attr source  qrcvd
attr title  "packets received by queue, count"
scalar GTITM_TS_IPv4Network.backboneRouter[3].ppp[13].queue 	queuedrops:count 	0
attr source  qdrop
attr title  "packets dropped by queue, count"
scalar GTITM_TS_IPv4Network.backboneRouter[3].ppp[13].queue 	queuercvd:count 	0
attr source  qrcvd
attr title  "packets received by queue, count"
scalar GTITM_TS_IPv4Network.backboneRouter[4].networkLayer.ip 	"datagrams multicast" 	0
scalar GTITM_TS_IPv4Network.backboneRouter[4].networkLayer.ip 	"datagrams locally delivered" 	0
scalar GTITM_TS_IPv4Network.backboneRouter[4].networkLayer.ip 	"datagrams dropped" 	0
scalar GTITM_TS_IPv4Network.backboneRouter[4].networkLayer.ip 	"datagrams unroutable" 	0
scalar GTITM_TS_IPv4Network.backboneRouter[4].networkLayer.ip 	"datagrams forwarded" 	0
scalar GTITM_TS_IPv4Network.backboneRouter[4].networkLayer.arp 	"ARP requests sent" 	0
scalar GTITM_TS_IPv4Network.backboneRouter[4].networkLayer.arp 	"ARP replies sent" 	0
scalar GTITM_TS_IPv4Network.backboneRouter[4].networkLayer.arp 	"ARP resolutions" 	0
scalar GTITM_TS_IPv4Network.backboneRouter[4].networkLayer.arp 	"failed ARP resolutions" 	0
scalar GTITM_TS_IPv4Network.backboneRouter[4].ppp[0].queue 	queuedrops:count 	0
attr source  qdrop
attr title  "packets dropped by queue, count"
scalar GTITM_TS_IPv4Network.backboneRouter[4].ppp[0].queue 	queuercvd:count 	0
attr source  qrcvd
attr title  "packets received by queue, count"
scalar GTITM_TS_IPv4Network.backboneRouter[4].ppp[1].queue 	queuedrops:count 	0
attr source  qdrop
attr title  "packets dropped by queue, count"
scalar GTITM_TS_IPv4Network.backboneRouter[4].ppp[1].queue 	queuercvd:count 	0
attr source  qrcvd
attr title  "packets received by queue, count"
scalar GTITM_TS_IPv4Network.backboneRouter[4].ppp[2].queue 	queuedrops:count 	0
attr source  qdrop
attr title  "packets dropped by queue, count"
scalar GTITM_TS_IPv4Network.backboneRouter[4].ppp[2].queue 	queuercvd:count 	0
attr source  qrcvd
attr title  "packets received by queue, count"
scalar GTITM_TS_IPv4Network.backboneRouter[4].ppp[3].queue 	queuedrops:count 	0
attr source  qdrop
attr title  "packets dropped by queue, count"
scalar GTITM_TS_IPv4Network.backboneRouter[4].ppp[3].queue 	queuercvd:count 	0
attr source  qrcvd
attr title  "packets received by queue, count"
scalar GTITM_TS_IPv4Network.backboneRouter[4].ppp[4].queue 	queuedrops:count 	0
attr source  qdrop
attr title  "packets dropped by queue, count"
scalar GTITM_TS_IPv4Network.backboneRouter[4].ppp[4].queue 	queuercvd:count 	0
attr source  qrcvd
attr title  "packets received by queue, count"
scalar GTITM_TS_IPv4Network.backboneRouter[4].ppp[5].queue 	queuedrops:count 	0
attr source  qdrop
attr title  "packets dropped by queue, count"
scalar GTITM_TS_IPv4Network.backboneRouter[4].ppp[5].queue 	queuercvd:count 	0
attr source  qrcvd
attr title  "packets received by queue, count"
scalar GTITM_TS_IPv4Network.backboneRouter[4].ppp[6].queue 	queuedrops:count 	0
attr source  qdrop
attr title  "packets dropped by queue, count"
scalar GTITM_TS_IPv4Network.backboneRouter[4].ppp[6].queue 	queuercvd:count 	0
attr source  qrcvd
attr title  "packets received by queue, count"
scalar GTITM_TS_IPv4Network.backboneRouter[4].ppp[7].queue 	queuedrops:count 	0
attr source  qdrop
attr title  "packets dropped by queue, count"
scalar GTITM_TS_IPv4Network.backboneRouter[4].ppp[7].queue 	queuercvd:count 	0
attr source  qrcvd
attr title  "packets received by queue, count"
scalar GTITM_TS_IPv4Network.backboneRouter[4].ppp[8].queue 	queuedrops:count 	0
attr source  qdrop
attr title  "packets dropped by queue, count"
scalar GTITM_TS_IPv4Network.backboneRouter[4].ppp[8].queue 	queuercvd:count 	0
attr source  qrcvd
attr title  "packets received by queue, count"
scalar GTITM_TS_IPv4Network.backboneRouter[4].ppp[9].queue 	queuedrops:count 	0
attr source  qdrop
attr title  "packets dropped by queue, count"
scalar GTITM_TS_IPv4Network.backboneRouter[4].ppp[9].queue 	queuercvd:count 	0
attr source  qrcvd
attr title  "packets received by queue, count"
scalar GTITM_TS_IPv4Network.backboneRouter[4].ppp[10].queue 	queuedrops:count 	0
attr source  qdrop
attr title  "packets dropped by queue, count"
scalar GTITM_TS_IPv4Network.backboneRouter[4].ppp[10].queue 	queuercvd:count 	0
attr source  qrcvd
attr title  "packets received by queue, count"
scalar GTITM_TS_IPv4Network.backboneRouter[4].ppp[11].queue 	queuedrops:count 	0
attr source  qdrop
attr title  "packets dropped by queue, count"
scalar GTITM_TS_IPv4Network.backboneRouter[4].ppp[11].queue 	queuercvd:count 	0
attr source  qrcvd
attr title  "packets received by queue, count"
scalar GTITM_TS_IPv4Network.backboneRouter[4].ppp[12].queue 	queuedrops:count 	0
attr source  qdrop
attr title  "packets dropped by queue, count"
scalar GTITM_TS_IPv4Network.backboneRouter[4].ppp[12].queue 	queuercvd:count 	0
attr source  qrcvd
attr title  "packets received by queue, count"
scalar GTITM_TS_IPv4Network.backboneRouter[5].networkLayer.ip 	"datagrams multicast" 	0
scalar GTITM_TS_IPv4Network.backboneRouter[5].networkLayer.ip 	"datagrams locally delivered" 	0
scalar GTITM_TS_IPv4Network.backboneRouter[5].networkLayer.ip 	"datagrams dropped" 	0
scalar GTITM_TS_IPv4Network.backboneRouter[5].networkLayer.ip 	"datagrams unroutable" 	0
scalar GTITM_TS_IPv4Network.backboneRouter[5].networkLayer.ip 	"datagrams forwarded" 	0
scalar GTITM_TS_IPv4Network.backboneRouter[5].networkLayer.arp 	"ARP requests sent" 	0
scalar GTITM_TS_IPv4Network.backboneRouter[5].networkLayer.arp 	"ARP replies sent" 	0
scalar GTITM_TS_IPv4Network.backboneRouter[5].networkLayer.arp 	"ARP resolutions" 	0
scalar GTITM_TS_IPv4Network.backboneRouter[5].networkLayer.arp 	"failed ARP resolutions" 	0
scalar GTITM_TS_IPv4Network.backboneRouter[5].ppp[0].queue 	queuedrops:count 	0
attr source  qdrop
attr title  "packets dropped by queue, count"
scalar GTITM_TS_IPv4Network.backboneRouter[5].ppp[0].queue 	queuercvd:count 	0
attr source  qrcvd
attr title  "packets received by queue, count"
scalar GTITM_TS_IPv4Network.backboneRouter[5].ppp[1].queue 	queuedrops:count 	0
attr source  qdrop
attr title  "packets dropped by queue, count"
scalar GTITM_TS_IPv4Network.backboneRouter[5].ppp[1].queue 	queuercvd:count 	0
attr source  qrcvd
attr title  "packets received by queue, count"
scalar GTITM_TS_IPv4Network.backboneRouter[5].ppp[2].queue 	queuedrops:count 	0
attr source  qdrop
attr title  "packets dropped by queue, count"
scalar GTITM_TS_IPv4Network.backboneRouter[5].ppp[2].queue 	queuercvd:count 	0
attr source  qrcvd
attr title  "packets received by queue, count"
scalar GTITM_TS_IPv4Network.backboneRouter[5].ppp[3].queue 	queuedrops:count 	0
attr source  qdrop
attr title  "packets dropped by queue, count"
scalar GTITM_TS_IPv4Network.backboneRouter[5].ppp[3].queue 	queuercvd:count 	0
attr source  qrcvd
attr title  "packets received by queue, count"
scalar GTITM_TS_IPv4Network.backboneRouter[5].ppp[4].queue 	queuedrops:count 	0
attr source  qdrop
attr title  "packets dropped by queue, count"
scalar GTITM_TS_IPv4Network.backboneRouter[5].ppp[4].queue 	queuercvd:count 	0
attr source  qrcvd
attr title  "packets received by queue, count"
scalar GTITM_TS_IPv4Network.backboneRouter[5].ppp[5].queue 	queuedrops:count 	0
attr source  qdrop
attr title  "packets dropped by queue, count"
scalar GTITM_TS_IPv4Network.backboneRouter[5].ppp[5].queue 	queuercvd:count 	0
attr source  qrcvd
attr title  "packets received by queue, count"
scalar GTITM_TS_IPv4Network.backboneRouter[5].ppp[6].queue 	queuedrops:count 	0
attr source  qdrop
attr title  "packets dropped by queue, count"
scalar GTITM_TS_IPv4Network.backboneRouter[5].ppp[6].queue 	queuercvd:count 	0
attr source  qrcvd
attr title  "packets received by queue, count"
scalar GTITM_TS_IPv4Network.backboneRouter[5].ppp[7].queue 	queuedrops:count 	0
attr source  qdrop
attr title  "packets dropped by queue, count"
scalar GTITM_TS_IPv4Network.backboneRouter[5].ppp[7].queue 	queuercvd:count 	0
attr source  qrcvd
attr title  "packets received by queue, count"
scalar GTITM_TS_IPv4Network.backboneRouter[5].ppp[8].queue 	queuedrops:count 	0
attr source  qdrop
attr title  "packets dropped by queue, count"
scalar GTITM_TS_IPv4Network.backboneRouter[5].ppp[8].queue 	queuercvd:count 	0
attr source  qrcvd
attr title  "packets received by queue, count"
scalar GTITM_TS_IPv4Network.backboneRouter[5].ppp[9].queue 	queuedrops:count 	0
attr source  qdrop
attr title  "packets dropped by queue, count"
scalar GTITM_TS_IPv4Network.backboneRouter[5].ppp[9].queue 	queuercvd:count 	0
attr source  qrcvd
attr title  "packets received by queue, count"
scalar GTITM_TS_IPv4Network.backboneRouter[5].ppp[10].queue 	queuedrops:count 	0
attr source  qdrop
attr title  "packets dropped by queue, count"
scalar GTITM_TS_IPv4Network.backboneRouter[5].ppp[10].queue 	queuercvd:count 	0
attr source  qrcvd
attr title  "packets received by queue, count"
scalar GTITM_TS_IPv4Network.backboneRouter[6].networkLayer.ip 	"datagrams multicast" 	0
scalar GTITM_TS_IPv4Network.backboneRouter[6].networkLayer.ip 	"datagrams locally delivered" 	0
scalar GTITM_TS_IPv4Network.backboneRouter[6].networkLayer.ip 	"datagrams dropped" 	0
scalar GTITM_TS_IPv4Network.backboneRouter[6].networkLayer.ip 	"datagrams unroutable" 	0
scalar GTITM_TS_IPv4Network.backboneRouter[6].networkLayer.ip 	"datagrams forwarded" 	0
scalar GTITM_TS_IPv4Network.backboneRouter[6].networkLayer.arp 	"ARP requests sent" 	0
scalar GTITM_TS_IPv4Network.backboneRouter[6].networkLayer.arp 	"ARP replies sent" 	0
scalar GTITM_TS_IPv4Network.backboneRouter[6].networkLayer.arp 	"ARP resolutions" 	0
scalar GTITM_TS_IPv4Network.backboneRouter[6].networkLayer.arp 	"failed ARP resolutions" 	0
scalar GTITM_TS_IPv4Network.backboneRouter[6].ppp[0].queue 	queuedrops:count 	0
attr source  qdrop
attr title  "packets dropped by queue, count"
scalar GTITM_TS_IPv4Network.backboneRouter[6].ppp[0].queue 	queuercvd:count 	0
attr source  qrcvd
attr title  "packets received by queue, count"
scalar GTITM_TS_IPv4Network.backboneRouter[6].ppp[1].queue 	queuedrops:count 	0
attr source  qdrop
attr title  "packets dropped by queue, count"
scalar GTITM_TS_IPv4Network.backboneRouter[6].ppp[1].queue 	queuercvd:count 	0
attr source  qrcvd
attr title  "packets received by queue, count"
scalar GTITM_TS_IPv4Network.backboneRouter[6].ppp[2].queue 	queuedrops:count 	0
attr source  qdrop
attr title  "packets dropped by queue, count"
scalar GTITM_TS_IPv4Network.backboneRouter[6].ppp[2].queue 	queuercvd:count 	0
attr source  qrcvd
attr title  "packets received by queue, count"
scalar GTITM_TS_IPv4Network.backboneRouter[6].ppp[3].queue 	queuedrops:count 	0
attr source  qdrop
attr title  "packets dropped by queue, count"
scalar GTITM_TS_IPv4Network.backboneRouter[6].ppp[3].queue 	queuercvd:count 	0
attr source  qrcvd
attr title  "packets received by queue, count"
scalar GTITM_TS_IPv4Network.backboneRouter[6].ppp[4].queue 	queuedrops:count 	0
attr source  qdrop
attr title  "packets dropped by queue, count"
scalar GTITM_TS_IPv4Network.backboneRouter[6].ppp[4].queue 	queuercvd:count 	0
attr source  qrcvd
attr title  "packets received by queue, count"
scalar GTITM_TS_IPv4Network.backboneRouter[6].ppp[5].queue 	queuedrops:count 	0
attr source  qdrop
attr title  "packets dropped by queue, count"
scalar GTITM_TS_IPv4Network.backboneRouter[6].ppp[5].queue 	queuercvd:count 	0
attr source  qrcvd
attr title  "packets received by queue, count"
scalar GTITM_TS_IPv4Network.backboneRouter[6].ppp[6].queue 	queuedrops:count 	0
attr source  qdrop
attr title  "packets dropped by queue, count"
scalar GTITM_TS_IPv4Network.backboneRouter[6].ppp[6].queue 	queuercvd:count 	0
attr source  qrcvd
attr title  "packets received by queue, count"
scalar GTITM_TS_IPv4Network.backboneRouter[6].ppp[7].queue 	queuedrops:count 	0
attr source  qdrop
attr title  "packets dropped by queue, count"
scalar GTITM_TS_IPv4Network.backboneRouter[6].ppp[7].queue 	queuercvd:count 	0
attr source  qrcvd
attr title  "packets received by queue, count"
scalar GTITM_TS_IPv4Network.backboneRouter[6].ppp[8].queue 	queuedrops:count 	0
attr source  qdrop
attr title  "packets dropped by queue, count"
scalar GTITM_TS_IPv4Network.backboneRouter[6].ppp[8].queue 	queuercvd:count 	0
attr source  qrcvd
attr title  "packets received by queue, count"
scalar GTITM_TS_IPv4Network.backboneRouter[7].networkLayer.ip 	"datagrams multicast" 	0
scalar GTITM_TS_IPv4Network.backboneRouter[7].networkLayer.ip 	"datagrams locally delivered" 	0
scalar GTITM_TS_IPv4Network.backboneRouter[7].networkLayer.ip 	"datagrams dropped" 	0
scalar GTITM_TS_IPv4Network.backboneRouter[7].networkLayer.ip 	"datagrams unroutable" 	0
scalar GTITM_TS_IPv4Network.backboneRouter[7].networkLayer.ip 	"datagrams forwarded" 	0
scalar GTITM_TS_IPv4Network.backboneRouter[7].networkLayer.arp 	"ARP requests sent" 	0
scalar GTITM_TS_IPv4Network.backboneRouter[7].networkLayer.arp 	"ARP replies sent" 	0
scalar GTITM_TS_IPv4Network.backboneRouter[7].networkLayer.arp 	"ARP resolutions" 	0
scalar GTITM_TS_IPv4Network.backboneRouter[7].networkLayer.arp 	"failed ARP resolutions" 	0
scalar GTITM_TS_IPv4Network.backboneRouter[7].ppp[0].queue 	queuedrops:count 	0
attr source  qdrop
attr title  "packets dropped by queue, count"
scalar GTITM_TS_IPv4Network.backboneRouter[7].ppp[0].queue 	queuercvd:count 	0
attr source  qrcvd
attr title  "packets received by queue, count"
scalar GTITM_TS_IPv4Network.backboneRouter[7].ppp[1].queue 	queuedrops:count 	0
attr source  qdrop
attr title  "packets dropped by queue, count"
scalar GTITM_TS_IPv4Network.backboneRouter[7].ppp[1].queue 	queuercvd:count 	0
attr source  qrcvd
attr title  "packets received by queue, count"
scalar GTITM_TS_IPv4Network.backboneRouter[7].ppp[2].queue 	queuedrops:count 	0
attr source  qdrop
attr title  "packets dropped by queue, count"
scalar GTITM_TS_IPv4Network.backboneRouter[7].ppp[2].queue 	queuercvd:count 	0
attr source  qrcvd
attr title  "packets received by queue, count"
scalar GTITM_TS_IPv4Network.backboneRouter[7].ppp[3].queue 	queuedrops:count 	0
attr source  qdrop
attr title  "packets dropped by queue, count"
scalar GTITM_TS_IPv4Network.backboneRouter[7].ppp[3].queue 	queuercvd:count 	0
attr source  qrcvd
attr title  "packets received by queue, count"
scalar GTITM_TS_IPv4Network.backboneRouter[7].ppp[4].queue 	queuedrops:count 	0
attr source  qdrop
attr title  "packets dropped by queue, count"
scalar GTITM_TS_IPv4Network.backboneRouter[7].ppp[4].queue 	queuercvd:count 	0
attr source  qrcvd
attr title  "packets received by queue, count"
scalar GTITM_TS_IPv4Network.backboneRouter[7].ppp[5].queue 	queuedrops:count 	0
attr source  qdrop
attr title  "packets dropped by queue, count"
scalar GTITM_TS_IPv4Network.backboneRouter[7].ppp[5].queue 	queuercvd:count 	0
attr source  qrcvd
attr title  "packets received by queue, count"
scalar GTITM_TS_IPv4Network.backboneRouter[7].ppp[6].queue 	queuedrops:count 	0
attr source  qdrop
attr title  "packets dropped by queue, count"
scalar GTITM_TS_IPv4Network.backboneRouter[7].ppp[6].queue 	queuercvd:count 	0
attr source  qrcvd
attr title  "packets received by queue, count"
scalar GTITM_TS_IPv4Network.backboneRouter[7].ppp[7].queue 	queuedrops:count 	0
attr source  qdrop
attr title  "packets dropped by queue, count"
scalar GTITM_TS_IPv4Network.backboneRouter[7].ppp[7].queue 	queuercvd:count 	0
attr source  qrcvd
attr title  "packets received by queue, count"
scalar GTITM_TS_IPv4Network.backboneRouter[7].ppp[8].queue 	queuedrops:count 	0
attr source  qdrop
attr title  "packets dropped by queue, count"
scalar GTITM_TS_IPv4Network.backboneRouter[7].ppp[8].queue 	queuercvd:count 	0
attr source  qrcvd
attr title  "packets received by queue, count"
scalar GTITM_TS_IPv4Network.backboneRouter[7].ppp[9].queue 	queuedrops:count 	0
attr source  qdrop
attr title  "packets dropped by queue, count"
scalar GTITM_TS_IPv4Network.backboneRouter[7].ppp[9].queue 	queuercvd:count 	0
attr source  qrcvd
attr title  "packets received by queue, count"
scalar GTITM_TS_IPv4Network.backboneRouter[7].ppp[10].queue 	queuedrops:count 	0
attr source  qdrop
attr title  "packets dropped by queue, count"
scalar GTITM_TS_IPv4Network.backboneRouter[7].ppp[10].queue 	queuercvd:count 	0
attr source  qrcvd
attr title  "packets received by queue, count"
scalar GTITM_TS_IPv4Network.backboneRouter[7].ppp[11].queue 	queuedrops:count 	0
attr source  qdrop
attr title  "packets dropped by queue, count"
scalar GTITM_TS_IPv4Network.backboneRouter[7].ppp[11].queue 	queuercvd:count 	0
attr source  qrcvd
attr title  "packets received by queue, count"
scalar GTITM_TS_IPv4Network.backboneRouter[7].ppp[12].queue 	queuedrops:count 	0
attr source  qdrop
attr title  "packets dropped by queue, count"
scalar GTITM_TS_IPv4Network.backboneRouter[7].ppp[12].queue 	queuercvd:count 	0
attr source  qrcvd
attr title  "packets received by queue, count"
scalar GTITM_TS_IPv4Network.backboneRouter[8].networkLayer.ip 	"datagrams multicast" 	0
scalar GTITM_TS_IPv4Network.backboneRouter[8].networkLayer.ip 	"datagrams locally delivered" 	0
scalar GTITM_TS_IPv4Network.backboneRouter[8].networkLayer.ip 	"datagrams dropped" 	0
scalar GTITM_TS_IPv4Network.backboneRouter[8].networkLayer.ip 	"datagrams unroutable" 	0
scalar GTITM_TS_IPv4Network.backboneRouter[8].networkLayer.ip 	"datagrams forwarded" 	0
scalar GTITM_TS_IPv4Network.backboneRouter[8].networkLayer.arp 	"ARP requests sent" 	0
scalar GTITM_TS_IPv4Network.backboneRouter[8].networkLayer.arp 	"ARP replies sent" 	0
scalar GTITM_TS_IPv4Network.backboneRouter[8].networkLayer.arp 	"ARP resolutions" 	0
scalar GTITM_TS_IPv4Network.backboneRouter[8].networkLayer.arp 	"failed ARP resolutions" 	0
scalar GTITM_TS_IPv4Network.backboneRouter[8].ppp[0].queue 	queuedrops:count 	0
attr source  qdrop
attr title  "packets dropped by queue, count"
scalar GTITM_TS_IPv4Network.backboneRouter[8].ppp[0].queue 	queuercvd:count 	0
attr source  qrcvd
attr title  "packets received by queue, count"
scalar GTITM_TS_IPv4Network.backboneRouter[8].ppp[1].queue 	queuedrops:count 	0
attr source  qdrop
attr title  "packets dropped by queue, count"
scalar GTITM_TS_IPv4Network.backboneRouter[8].ppp[1].queue 	queuercvd:count 	0
attr source  qrcvd
attr title  "packets received by queue, count"
scalar GTITM_TS_IPv4Network.backboneRouter[8].ppp[2].queue 	queuedrops:count 	0
attr source  qdrop
attr title  "packets dropped by queue, count"
scalar GTITM_TS_IPv4Network.backboneRouter[8].ppp[2].queue 	queuercvd:count 	0
attr source  qrcvd
attr title  "packets received by queue, count"
scalar GTITM_TS_IPv4Network.backboneRouter[8].ppp[3].queue 	queuedrops:count 	0
attr source  qdrop
attr title  "packets dropped by queue, count"
scalar GTITM_TS_IPv4Network.backboneRouter[8].ppp[3].queue 	queuercvd:count 	0
attr source  qrcvd
attr title  "packets received by queue, count"
scalar GTITM_TS_IPv4Network.backboneRouter[8].ppp[4].queue 	queuedrops:count 	0
attr source  qdrop
attr title  "packets dropped by queue, count"
scalar GTITM_TS_IPv4Network.backboneRouter[8].ppp[4].queue 	queuercvd:count 	0
attr source  qrcvd
attr title  "packets received by queue, count"
scalar GTITM_TS_IPv4Network.backboneRouter[8].ppp[5].queue 	queuedrops:count 	0
attr source  qdrop
attr title  "packets dropped by queue, count"
scalar GTITM_TS_IPv4Network.backboneRouter[8].ppp[5].queue 	queuercvd:count 	0
attr source  qrcvd
attr title  "packets received by queue, count"
scalar GTITM_TS_IPv4Network.backboneRouter[8].ppp[6].queue 	queuedrops:count 	0
attr source  qdrop
attr title  "packets dropped by queue, count"
scalar GTITM_TS_IPv4Network.backboneRouter[8].ppp[6].queue 	queuercvd:count 	0
attr source  qrcvd
attr title  "packets received by queue, count"
scalar GTITM_TS_IPv4Network.backboneRouter[8].ppp[7].queue 	queuedrops:count 	0
attr source  qdrop
attr title  "packets dropped by queue, count"
scalar GTITM_TS_IPv4Network.backboneRouter[8].ppp[7].queue 	queuercvd:count 	0
attr source  qrcvd
attr title  "packets received by queue, count"
scalar GTITM_TS_IPv4Network.backboneRouter[8].ppp[8].queue 	queuedrops:count 	0
attr source  qdrop
attr title  "packets dropped by queue, count"
scalar GTITM_TS_IPv4Network.backboneRouter[8].ppp[8].queue 	queuercvd:count 	0
attr source  qrcvd
attr title  "packets received by queue, count"
scalar GTITM_TS_IPv4Network.backboneRouter[8].ppp[9].queue 	queuedrops:count 	0
attr source  qdrop
attr title  "packets dropped by queue, count"
scalar GTITM_TS_IPv4Network.backboneRouter[8].ppp[9].queue 	queuercvd:count 	0
attr source  qrcvd
attr title  "packets received by queue, count"
scalar GTITM_TS_IPv4Network.backboneRouter[8].ppp[10].queue 	queuedrops:count 	0
attr source  qdrop
attr title  "packets dropped by queue, count"
scalar GTITM_TS_IPv4Network.backboneRouter[8].ppp[10].queue 	queuercvd:count 	0
attr source  qrcvd
attr title  "packets received by queue, count"
scalar GTITM_TS_IPv4Network.backboneRouter[8].ppp[11].queue 	queuedrops:count 	0
attr source  qdrop
attr title  "packets dropped by queue, count"
scalar GTITM_TS_IPv4Network.backboneRouter[8].ppp[11].queue 	queuercvd:count 	0
attr source  qrcvd
attr title  "packets received by queue, count"
scalar GTITM_TS_IPv4Network.backboneRouter[8].ppp[12].queue 	queuedrops:count 	0
attr source  qdrop
attr title  "packets dropped by queue, count"
scalar GTITM_TS_IPv4Network.backboneRouter[8].ppp[12].queue 	queuercvd:count 	0
attr source  qrcvd
attr title  "packets received by queue, count"
scalar GTITM_TS_IPv4Network.backboneRouter[9].networkLayer.ip 	"datagrams multicast" 	0
scalar GTITM_TS_IPv4Network.backboneRouter[9].networkLayer.ip 	"datagrams locally delivered" 	0
scalar GTITM_TS_IPv4Network.backboneRouter[9].networkLayer.ip 	"datagrams dropped" 	0
scalar GTITM_TS_IPv4Network.backboneRouter[9].networkLayer.ip 	"datagrams unroutable" 	0
scalar GTITM_TS_IPv4Network.backboneRouter[9].networkLayer.ip 	"datagrams forwarded" 	0
scalar GTITM_TS_IPv4Network.backboneRouter[9].networkLayer.arp 	"ARP requests sent" 	0
scalar GTITM_TS_IPv4Network.backboneRouter[9].networkLayer.arp 	"ARP replies sent" 	0
scalar GTITM_TS_IPv4Network.backboneRouter[9].networkLayer.arp 	"ARP resolutions" 	0
scalar GTITM_TS_IPv4Network.backboneRouter[9].networkLayer.arp 	"failed ARP resolutions" 	0
scalar GTITM_TS_IPv4Network.backboneRouter[9].ppp[0].queue 	queuedrops:count 	0
attr source  qdrop
attr title  "packets dropped by queue, count"
scalar GTITM_TS_IPv4Network.backboneRouter[9].ppp[0].queue 	queuercvd:count 	0
attr source  qrcvd
attr title  "packets received by queue, count"
scalar GTITM_TS_IPv4Network.backboneRouter[9].ppp[1].queue 	queuedrops:count 	0
attr source  qdrop
attr title  "packets dropped by queue, count"
scalar GTITM_TS_IPv4Network.backboneRouter[9].ppp[1].queue 	queuercvd:count 	0
attr source  qrcvd
attr title  "packets received by queue, count"
scalar GTITM_TS_IPv4Network.backboneRouter[9].ppp[2].queue 	queuedrops:count 	0
attr source  qdrop
attr title  "packets dropped by queue, count"
scalar GTITM_TS_IPv4Network.backboneRouter[9].ppp[2].queue 	queuercvd:count 	0
attr source  qrcvd
attr title  "packets received by queue, count"
scalar GTITM_TS_IPv4Network.backboneRouter[9].ppp[3].queue 	queuedrops:count 	0
attr source  qdrop
attr title  "packets dropped by queue, count"
scalar GTITM_TS_IPv4Network.backboneRouter[9].ppp[3].queue 	queuercvd:count 	0
attr source  qrcvd
attr title  "packets received by queue, count"
scalar GTITM_TS_IPv4Network.backboneRouter[9].ppp[4].queue 	queuedrops:count 	0
attr source  qdrop
attr title  "packets dropped by queue, count"
scalar GTITM_TS_IPv4Network.backboneRouter[9].ppp[4].queue 	queuercvd:count 	0
attr source  qrcvd
attr title  "packets received by queue, count"
scalar GTITM_TS_IPv4Network.backboneRouter[9].ppp[5].queue 	queuedrops:count 	0
attr source  qdrop
attr title  "packets dropped by queue, count"
scalar GTITM_TS_IPv4Network.backboneRouter[9].ppp[5].queue 	queuercvd:count 	0
attr source  qrcvd
attr title  "packets received by queue, count"
scalar GTITM_TS_IPv4Network.backboneRouter[9].ppp[6].queue 	queuedrops:count 	0
attr source  qdrop
attr title  "packets dropped by queue, count"
scalar GTITM_TS_IPv4Network.backboneRouter[9].ppp[6].queue 	queuercvd:count 	0
attr source  qrcvd
attr title  "packets received by queue, count"
scalar GTITM_TS_IPv4Network.backboneRouter[9].ppp[7].queue 	queuedrops:count 	0
attr source  qdrop
attr title  "packets dropped by queue, count"
scalar GTITM_TS_IPv4Network.backboneRouter[9].ppp[7].queue 	queuercvd:count 	0
attr source  qrcvd
attr title  "packets received by queue, count"
scalar GTITM_TS_IPv4Network.backboneRouter[9].ppp[8].queue 	queuedrops:count 	0
attr source  qdrop
attr title  "packets dropped by queue, count"
scalar GTITM_TS_IPv4Network.backboneRouter[9].ppp[8].queue 	queuercvd:count 	0
attr source  qrcvd
attr title  "packets received by queue, count"
scalar GTITM_TS_IPv4Network.backboneRouter[9].ppp[9].queue 	queuedrops:count 	0
attr source  qdrop
attr title  "packets dropped by queue, count"
scalar GTITM_TS_IPv4Network.backboneRouter[9].ppp[9].queue 	queuercvd:count 	0
attr source  qrcvd
attr title  "packets received by queue, count"
scalar GTITM_TS_IPv4Network.backboneRouter[10].networkLayer.ip 	"datagrams multicast" 	0
scalar GTITM_TS_IPv4Network.backboneRouter[10].networkLayer.ip 	"datagrams locally delivered" 	0
scalar GTITM_TS_IPv4Network.backboneRouter[10].networkLayer.ip 	"datagrams dropped" 	0
scalar GTITM_TS_IPv4Network.backboneRouter[10].networkLayer.ip 	"datagrams unroutable" 	0
scalar GTITM_TS_IPv4Network.backboneRouter[10].networkLayer.ip 	"datagrams forwarded" 	0
scalar GTITM_TS_IPv4Network.backboneRouter[10].networkLayer.arp 	"ARP requests sent" 	0
scalar GTITM_TS_IPv4Network.backboneRouter[10].networkLayer.arp 	"ARP replies sent" 	0
scalar GTITM_TS_IPv4Network.backboneRouter[10].networkLayer.arp 	"ARP resolutions" 	0
scalar GTITM_TS_IPv4Network.backboneRouter[10].networkLayer.arp 	"failed ARP resolutions" 	0
scalar GTITM_TS_IPv4Network.backboneRouter[10].ppp[0].queue 	queuedrops:count 	0
attr source  qdrop
attr title  "packets dropped by queue, count"
scalar GTITM_TS_IPv4Network.backboneRouter[10].ppp[0].queue 	queuercvd:count 	0
attr source  qrcvd
attr title  "packets received by queue, count"
scalar GTITM_TS_IPv4Network.backboneRouter[10].ppp[1].queue 	queuedrops:count 	0
attr source  qdrop
attr title  "packets dropped by queue, count"
scalar GTITM_TS_IPv4Network.backboneRouter[10].ppp[1].queue 	queuercvd:count 	0
attr source  qrcvd
attr title  "packets received by queue, count"
scalar GTITM_TS_IPv4Network.backboneRouter[10].ppp[2].queue 	queuedrops:count 	0
attr source  qdrop
attr title  "packets dropped by queue, count"
scalar GTITM_TS_IPv4Network.backboneRouter[10].ppp[2].queue 	queuercvd:count 	0
attr source  qrcvd
attr title  "packets received by queue, count"
scalar GTITM_TS_IPv4Network.backboneRouter[10].ppp[3].queue 	queuedrops:count 	0
attr source  qdrop
attr title  "packets dropped by queue, count"
scalar GTITM_TS_IPv4Network.backboneRouter[10].ppp[3].queue 	queuercvd:count 	0
attr source  qrcvd
attr title  "packets received by queue, count"
scalar GTITM_TS_IPv4Network.backboneRouter[10].ppp[4].queue 	queuedrops:count 	0
attr source  qdrop
attr title  "packets dropped by queue, count"
scalar GTITM_TS_IPv4Network.backboneRouter[10].ppp[4].queue 	queuercvd:count 	0
attr source  qrcvd
attr title  "packets received by queue, count"
scalar GTITM_TS_IPv4Network.backboneRouter[10].ppp[5].queue 	queuedrops:count 	0
attr source  qdrop
attr title  "packets dropped by queue, count"
scalar GTITM_TS_IPv4Network.backboneRouter[10].ppp[5].queue 	queuercvd:count 	0
attr source  qrcvd
attr title  "packets received by queue, count"
scalar GTITM_TS_IPv4Network.backboneRouter[10].ppp[6].queue 	queuedrops:count 	0
attr source  qdrop
attr title  "packets dropped by queue, count"
scalar GTITM_TS_IPv4Network.backboneRouter[10].ppp[6].queue 	queuercvd:count 	0
attr source  qrcvd
attr title  "packets received by queue, count"
scalar GTITM_TS_IPv4Network.backboneRouter[10].ppp[7].queue 	queuedrops:count 	0
attr source  qdrop
attr title  "packets dropped by queue, count"
scalar GTITM_TS_IPv4Network.backboneRouter[10].ppp[7].queue 	queuercvd:count 	0
attr source  qrcvd
attr title  "packets received by queue, count"
scalar GTITM_TS_IPv4Network.backboneRouter[11].networkLayer.ip 	"datagrams multicast" 	0
scalar GTITM_TS_IPv4Network.backboneRouter[11].networkLayer.ip 	"datagrams locally delivered" 	0
scalar GTITM_TS_IPv4Network.backboneRouter[11].networkLayer.ip 	"datagrams dropped" 	0
scalar GTITM_TS_IPv4Network.backboneRouter[11].networkLayer.ip 	"datagrams unroutable" 	0
scalar GTITM_TS_IPv4Network.backboneRouter[11].networkLayer.ip 	"datagrams forwarded" 	0
scalar GTITM_TS_IPv4Network.backboneRouter[11].networkLayer.arp 	"ARP requests sent" 	0
scalar GTITM_TS_IPv4Network.backboneRouter[11].networkLayer.arp 	"ARP replies sent" 	0
scalar GTITM_TS_IPv4Network.backboneRouter[11].networkLayer.arp 	"ARP resolutions" 	0
scalar GTITM_TS_IPv4Network.backboneRouter[11].networkLayer.arp 	"failed ARP resolutions" 	0
scalar GTITM_TS_IPv4Network.backboneRouter[11].ppp[0].queue 	queuedrops:count 	0
attr source  qdrop
attr title  "packets dropped by queue, count"
scalar GTITM_TS_IPv4Network.backboneRouter[11].ppp[0].queue 	queuercvd:count 	0
attr source  qrcvd
attr title  "packets received by queue, count"
scalar GTITM_TS_IPv4Network.backboneRouter[11].ppp[1].queue 	queuedrops:count 	0
attr source  qdrop
attr title  "packets dropped by queue, count"
scalar GTITM_TS_IPv4Network.backboneRouter[11].ppp[1].queue 	queuercvd:count 	0
attr source  qrcvd
attr title  "packets received by queue, count"
scalar GTITM_TS_IPv4Network.backboneRouter[11].ppp[2].queue 	queuedrops:count 	0
attr source  qdrop
attr title  "packets dropped by queue, count"
scalar GTITM_TS_IPv4Network.backboneRouter[11].ppp[2].queue 	queuercvd:count 	0
attr source  qrcvd
attr title  "packets received by queue, count"
scalar GTITM_TS_IPv4Network.backboneRouter[11].ppp[3].queue 	queuedrops:count 	0
attr source  qdrop
attr title  "packets dropped by queue, count"
scalar GTITM_TS_IPv4Network.backboneRouter[11].ppp[3].queue 	queuercvd:count 	0
attr source  qrcvd
attr title  "packets received by queue, count"
scalar GTITM_TS_IPv4Network.backboneRouter[11].ppp[4].queue 	queuedrops:count 	0
attr source  qdrop
attr title  "packets dropped by queue, count"
scalar GTITM_TS_IPv4Network.backboneRouter[11].ppp[4].queue 	queuercvd:count 	0
attr source  qrcvd
attr title  "packets received by queue, count"
scalar GTITM_TS_IPv4Network.backboneRouter[11].ppp[5].queue 	queuedrops:count 	0
attr source  qdrop
attr title  "packets dropped by queue, count"
scalar GTITM_TS_IPv4Network.backboneRouter[11].ppp[5].queue 	queuercvd:count 	0
attr source  qrcvd
attr title  "packets received by queue, count"
scalar GTITM_TS_IPv4Network.backboneRouter[11].ppp[6].queue 	queuedrops:count 	0
attr source  qdrop
attr title  "packets dropped by queue, count"
scalar GTITM_TS_IPv4Network.backboneRouter[11].ppp[6].queue 	queuercvd:count 	0
attr source  qrcvd
attr title  "packets received by queue, count"
scalar GTITM_TS_IPv4Network.backboneRouter[12].networkLayer.ip 	"datagrams multicast" 	0
scalar GTITM_TS_IPv4Network.backboneRouter[12].networkLayer.ip 	"datagrams locally delivered" 	0
scalar GTITM_TS_IPv4Network.backboneRouter[12].networkLayer.ip 	"datagrams dropped" 	0
scalar GTITM_TS_IPv4Network.backboneRouter[12].networkLayer.ip 	"datagrams unroutable" 	0
scalar GTITM_TS_IPv4Network.backboneRouter[12].networkLayer.ip 	"datagrams forwarded" 	0
scalar GTITM_TS_IPv4Network.backboneRouter[12].networkLayer.arp 	"ARP requests sent" 	0
scalar GTITM_TS_IPv4Network.backboneRouter[12].networkLayer.arp 	"ARP replies sent" 	0
scalar GTITM_TS_IPv4Network.backboneRouter[12].networkLayer.arp 	"ARP resolutions" 	0
scalar GTITM_TS_IPv4Network.backboneRouter[12].networkLayer.arp 	"failed ARP resolutions" 	0
scalar GTITM_TS_IPv4Network.backboneRouter[12].ppp[0].queue 	queuedrops:count 	0
attr source  qdrop
attr title  "packets dropped by queue, count"
scalar GTITM_TS_IPv4Network.backboneRouter[12].ppp[0].queue 	queuercvd:count 	0
attr source  qrcvd
attr title  "packets received by queue, count"
scalar GTITM_TS_IPv4Network.backboneRouter[12].ppp[1].queue 	queuedrops:count 	0
attr source  qdrop
attr title  "packets dropped by queue, count"
scalar GTITM_TS_IPv4Network.backboneRouter[12].ppp[1].queue 	queuercvd:count 	0
attr source  qrcvd
attr title  "packets received by queue, count"
scalar GTITM_TS_IPv4Network.backboneRouter[12].ppp[2].queue 	queuedrops:count 	0
attr source  qdrop
attr title  "packets dropped by queue, count"
scalar GTITM_TS_IPv4Network.backboneRouter[12].ppp[2].queue 	queuercvd:count 	0
attr source  qrcvd
attr title  "packets received by queue, count"
scalar GTITM_TS_IPv4Network.backboneRouter[12].ppp[3].queue 	queuedrops:count 	0
attr source  qdrop
attr title  "packets dropped by queue, count"
scalar GTITM_TS_IPv4Network.backboneRouter[12].ppp[3].queue 	queuercvd:count 	0
attr source  qrcvd
attr title  "packets received by queue, count"
scalar GTITM_TS_IPv4Network.backboneRouter[12].ppp[4].queue 	queuedrops:count 	0
attr source  qdrop
attr title  "packets dropped by queue, count"
scalar GTITM_TS_IPv4Network.backboneRouter[12].ppp[4].queue 	queuercvd:count 	0
attr source  qrcvd
attr title  "packets received by queue, count"
scalar GTITM_TS_IPv4Network.backboneRouter[12].ppp[5].queue 	queuedrops:count 	0
attr source  qdrop
attr title  "packets dropped by queue, count"
scalar GTITM_TS_IPv4Network.backboneRouter[12].ppp[5].queue 	queuercvd:count 	0
attr source  qrcvd
attr title  "packets received by queue, count"
scalar GTITM_TS_IPv4Network.backboneRouter[12].ppp[6].queue 	queuedrops:count 	0
attr source  qdrop
attr title  "packets dropped by queue, count"
scalar GTITM_TS_IPv4Network.backboneRouter[12].ppp[6].queue 	queuercvd:count 	0
attr source  qrcvd
attr title  "packets received by queue, count"
scalar GTITM_TS_IPv4Network.backboneRouter[12].ppp[7].queue 	queuedrops:count 	0
attr source  qdrop
attr title  "packets dropped by queue, count"
scalar GTITM_TS_IPv4Network.backboneRouter[12].ppp[7].queue 	queuercvd:count 	0
attr source  qrcvd
attr title  "packets received by queue, count"
scalar GTITM_TS_IPv4Network.backboneRouter[12].ppp[8].queue 	queuedrops:count 	0
attr source  qdrop
attr title  "packets dropped by queue, count"
scalar GTITM_TS_IPv4Network.backboneRouter[12].ppp[8].queue 	queuercvd:count 	0
attr source  qrcvd
attr title  "packets received by queue, count"
scalar GTITM_TS_IPv4Network.backboneRouter[12].ppp[9].queue 	queuedrops:count 	0
attr source  qdrop
attr title  "packets dropped by queue, count"
scalar GTITM_TS_IPv4Network.backboneRouter[12].ppp[9].queue 	queuercvd:count 	0
attr source  qrcvd
attr title  "packets received by queue, count"
scalar GTITM_TS_IPv4Network.backboneRouter[12].ppp[10].queue 	queuedrops:count 	0
attr source  qdrop
attr title  "packets dropped by queue, count"
scalar GTITM_TS_IPv4Network.backboneRouter[12].ppp[10].queue 	queuercvd:count 	0
attr source  qrcvd
attr title  "packets received by queue, count"
scalar GTITM_TS_IPv4Network.backboneRouter[12].ppp[11].queue 	queuedrops:count 	0
attr source  qdrop
attr title  "packets dropped by queue, count"
scalar GTITM_TS_IPv4Network.backboneRouter[12].ppp[11].queue 	queuercvd:count 	0
attr source  qrcvd
attr title  "packets received by queue, count"
scalar GTITM_TS_IPv4Network.backboneRouter[12].ppp[12].queue 	queuedrops:count 	0
attr source  qdrop
attr title  "packets dropped by queue, count"
scalar GTITM_TS_IPv4Network.backboneRouter[12].ppp[12].queue 	queuercvd:count 	0
attr source  qrcvd
attr title  "packets received by queue, count"
scalar GTITM_TS_IPv4Network.backboneRouter[12].ppp[13].queue 	queuedrops:count 	0
attr source  qdrop
attr title  "packets dropped by queue, count"
scalar GTITM_TS_IPv4Network.backboneRouter[12].ppp[13].queue 	queuercvd:count 	0
attr source  qrcvd
attr title  "packets received by queue, count"
scalar GTITM_TS_IPv4Network.backboneRouter[13].networkLayer.ip 	"datagrams multicast" 	0
scalar GTITM_TS_IPv4Network.backboneRouter[13].networkLayer.ip 	"datagrams locally delivered" 	0
scalar GTITM_TS_IPv4Network.backboneRouter[13].networkLayer.ip 	"datagrams dropped" 	0
scalar GTITM_TS_IPv4Network.backboneRouter[13].networkLayer.ip 	"datagrams unroutable" 	0
scalar GTITM_TS_IPv4Network.backboneRouter[13].networkLayer.ip 	"datagrams forwarded" 	0
scalar GTITM_TS_IPv4Network.backboneRouter[13].networkLayer.arp 	"ARP requests sent" 	0
scalar GTITM_TS_IPv4Network.backboneRouter[13].networkLayer.arp 	"ARP replies sent" 	0
scalar GTITM_TS_IPv4Network.backboneRouter[13].networkLayer.arp 	"ARP resolutions" 	0
scalar GTITM_TS_IPv4Network.backboneRouter[13].networkLayer.arp 	"failed ARP resolutions" 	0
scalar GTITM_TS_IPv4Network.backboneRouter[13].ppp[0].queue 	queuedrops:count 	0
attr source  qdrop
attr title  "packets dropped by queue, count"
scalar GTITM_TS_IPv4Network.backboneRouter[13].ppp[0].queue 	queuercvd:count 	0
attr source  qrcvd
attr title  "packets received by queue, count"
scalar GTITM_TS_IPv4Network.backboneRouter[13].ppp[1].queue 	queuedrops:count 	0
attr source  qdrop
attr title  "packets dropped by queue, count"
scalar GTITM_TS_IPv4Network.backboneRouter[13].ppp[1].queue 	queuercvd:count 	0
attr source  qrcvd
attr title  "packets received by queue, count"
scalar GTITM_TS_IPv4Network.backboneRouter[13].ppp[2].queue 	queuedrops:count 	0
attr source  qdrop
attr title  "packets dropped by queue, count"
scalar GTITM_TS_IPv4Network.backboneRouter[13].ppp[2].queue 	queuercvd:count 	0
attr source  qrcvd
attr title  "packets received by queue, count"
scalar GTITM_TS_IPv4Network.backboneRouter[13].ppp[3].queue 	queuedrops:count 	0
attr source  qdrop
attr title  "packets dropped by queue, count"
scalar GTITM_TS_IPv4Network.backboneRouter[13].ppp[3].queue 	queuercvd:count 	0
attr source  qrcvd
attr title  "packets received by queue, count"
scalar GTITM_TS_IPv4Network.backboneRouter[13].ppp[4].queue 	queuedrops:count 	0
attr source  qdrop
attr title  "packets dropped by queue, count"
scalar GTITM_TS_IPv4Network.backboneRouter[13].ppp[4].queue 	queuercvd:count 	0
attr source  qrcvd
attr title  "packets received by queue, count"
scalar GTITM_TS_IPv4Network.backboneRouter[13].ppp[5].queue 	queuedrops:count 	0
attr source  qdrop
attr title  "packets dropped by queue, count"
scalar GTITM_TS_IPv4Network.backboneRouter[13].ppp[5].queue 	queuercvd:count 	0
attr source  qrcvd
attr title  "packets received by queue, count"
scalar GTITM_TS_IPv4Network.backboneRouter[13].ppp[6].queue 	queuedrops:count 	0
attr source  qdrop
attr title  "packets dropped by queue, count"
scalar GTITM_TS_IPv4Network.backboneRouter[13].ppp[6].queue 	queuercvd:count 	0
attr source  qrcvd
attr title  "packets received by queue, count"
scalar GTITM_TS_IPv4Network.backboneRouter[13].ppp[7].queue 	queuedrops:count 	0
attr source  qdrop
attr title  "packets dropped by queue, count"
scalar GTITM_TS_IPv4Network.backboneRouter[13].ppp[7].queue 	queuercvd:count 	0
attr source  qrcvd
attr title  "packets received by queue, count"
scalar GTITM_TS_IPv4Network.backboneRouter[13].ppp[8].queue 	queuedrops:count 	0
attr source  qdrop
attr title  "packets dropped by queue, count"
scalar GTITM_TS_IPv4Network.backboneRouter[13].ppp[8].queue 	queuercvd:count 	0
attr source  qrcvd
attr title  "packets received by queue, count"
scalar GTITM_TS_IPv4Network.backboneRouter[13].ppp[9].queue 	queuedrops:count 	0
attr source  qdrop
attr title  "packets dropped by queue, count"
scalar GTITM_TS_IPv4Network.backboneRouter[13].ppp[9].queue 	queuercvd:count 	0
attr source  qrcvd
attr title  "packets received by queue, count"
scalar GTITM_TS_IPv4Network.backboneRouter[13].ppp[10].queue 	queuedrops:count 	0
attr source  qdrop
attr title  "packets dropped by queue, count"
scalar GTITM_TS_IPv4Network.backboneRouter[13].ppp[10].queue 	queuercvd:count 	0
attr source  qrcvd
attr title  "packets received by queue, count"
scalar GTITM_TS_IPv4Network.backboneRouter[14].networkLayer.ip 	"datagrams multicast" 	0
scalar GTITM_TS_IPv4Network.backboneRouter[14].networkLayer.ip 	"datagrams locally delivered" 	0
scalar GTITM_TS_IPv4Network.backboneRouter[14].networkLayer.ip 	"datagrams dropped" 	0
scalar GTITM_TS_IPv4Network.backboneRouter[14].networkLayer.ip 	"datagrams unroutable" 	0
scalar GTITM_TS_IPv4Network.backboneRouter[14].networkLayer.ip 	"datagrams forwarded" 	0
scalar GTITM_TS_IPv4Network.backboneRouter[14].networkLayer.arp 	"ARP requests sent" 	0
scalar GTITM_TS_IPv4Network.backboneRouter[14].networkLayer.arp 	"ARP replies sent" 	0
scalar GTITM_TS_IPv4Network.backboneRouter[14].networkLayer.arp 	"ARP resolutions" 	0
scalar GTITM_TS_IPv4Network.backboneRouter[14].networkLayer.arp 	"failed ARP resolutions" 	0
scalar GTITM_TS_IPv4Network.backboneRouter[14].ppp[0].queue 	queuedrops:count 	0
attr source  qdrop
attr title  "packets dropped by queue, count"
scalar GTITM_TS_IPv4Network.backboneRouter[14].ppp[0].queue 	queuercvd:count 	0
attr source  qrcvd
attr title  "packets received by queue, count"
scalar GTITM_TS_IPv4Network.backboneRouter[14].ppp[1].queue 	queuedrops:count 	0
attr source  qdrop
attr title  "packets dropped by queue, count"
scalar GTITM_TS_IPv4Network.backboneRouter[14].ppp[1].queue 	queuercvd:count 	0
attr source  qrcvd
attr title  "packets received by queue, count"
scalar GTITM_TS_IPv4Network.backboneRouter[14].ppp[2].queue 	queuedrops:count 	0
attr source  qdrop
attr title  "packets dropped by queue, count"
scalar GTITM_TS_IPv4Network.backboneRouter[14].ppp[2].queue 	queuercvd:count 	0
attr source  qrcvd
attr title  "packets received by queue, count"
scalar GTITM_TS_IPv4Network.backboneRouter[14].ppp[3].queue 	queuedrops:count 	0
attr source  qdrop
attr title  "packets dropped by queue, count"
scalar GTITM_TS_IPv4Network.backboneRouter[14].ppp[3].queue 	queuercvd:count 	0
attr source  qrcvd
attr title  "packets received by queue, count"
scalar GTITM_TS_IPv4Network.backboneRouter[14].ppp[4].queue 	queuedrops:count 	0
attr source  qdrop
attr title  "packets dropped by queue, count"
scalar GTITM_TS_IPv4Network.backboneRouter[14].ppp[4].queue 	queuercvd:count 	0
attr source  qrcvd
attr title  "packets received by queue, count"
scalar GTITM_TS_IPv4Network.backboneRouter[14].ppp[5].queue 	queuedrops:count 	0
attr source  qdrop
attr title  "packets dropped by queue, count"
scalar GTITM_TS_IPv4Network.backboneRouter[14].ppp[5].queue 	queuercvd:count 	0
attr source  qrcvd
attr title  "packets received by queue, count"
scalar GTITM_TS_IPv4Network.backboneRouter[14].ppp[6].queue 	queuedrops:count 	0
attr source  qdrop
attr title  "packets dropped by queue, count"
scalar GTITM_TS_IPv4Network.backboneRouter[14].ppp[6].queue 	queuercvd:count 	0
attr source  qrcvd
attr title  "packets received by queue, count"
scalar GTITM_TS_IPv4Network.backboneRouter[14].ppp[7].queue 	queuedrops:count 	0
attr source  qdrop
attr title  "packets dropped by queue, count"
scalar GTITM_TS_IPv4Network.backboneRouter[14].ppp[7].queue 	queuercvd:count 	0
attr source  qrcvd
attr title  "packets received by queue, count"
scalar GTITM_TS_IPv4Network.backboneRouter[14].ppp[8].queue 	queuedrops:count 	0
attr source  qdrop
attr title  "packets dropped by queue, count"
scalar GTITM_TS_IPv4Network.backboneRouter[14].ppp[8].queue 	queuercvd:count 	0
attr source  qrcvd
attr title  "packets received by queue, count"
scalar GTITM_TS_IPv4Network.backboneRouter[14].ppp[9].queue 	queuedrops:count 	0
attr source  qdrop
attr title  "packets dropped by queue, count"
scalar GTITM_TS_IPv4Network.backboneRouter[14].ppp[9].queue 	queuercvd:count 	0
attr source  qrcvd
attr title  "packets received by queue, count"
scalar GTITM_TS_IPv4Network.backboneRouter[14].ppp[10].queue 	queuedrops:count 	0
attr source  qdrop
attr title  "packets dropped by queue, count"
scalar GTITM_TS_IPv4Network.backboneRouter[14].ppp[10].queue 	queuercvd:count 	0
attr source  qrcvd
attr title  "packets received by queue, count"
scalar GTITM_TS_IPv4Network.backboneRouter[14].ppp[11].queue 	queuedrops:count 	0
attr source  qdrop
attr title  "packets dropped by queue, count"
scalar GTITM_TS_IPv4Network.backboneRouter[14].ppp[11].queue 	queuercvd:count 	0
attr source  qrcvd
attr title  "packets received by queue, count"
scalar GTITM_TS_IPv4Network.backboneRouter[14].ppp[12].queue 	queuedrops:count 	0
attr source  qdrop
attr title  "packets dropped by queue, count"
scalar GTITM_TS_IPv4Network.backboneRouter[14].ppp[12].queue 	queuercvd:count 	0
attr source  qrcvd
attr title  "packets received by queue, count"
scalar GTITM_TS_IPv4Network.backboneRouter[15].networkLayer.ip 	"datagrams multicast" 	0
scalar GTITM_TS_IPv4Network.backboneRouter[15].networkLayer.ip 	"datagrams locally delivered" 	0
scalar GTITM_TS_IPv4Network.backboneRouter[15].networkLayer.ip 	"datagrams dropped" 	0
scalar GTITM_TS_IPv4Network.backboneRouter[15].networkLayer.ip 	"datagrams unroutable" 	0
scalar GTITM_TS_IPv4Network.backboneRouter[15].networkLayer.ip 	"datagrams forwarded" 	0
scalar GTITM_TS_IPv4Network.backboneRouter[15].networkLayer.arp 	"ARP requests sent" 	0
scalar GTITM_TS_IPv4Network.backboneRouter[15].networkLayer.arp 	"ARP replies sent" 	0
scalar GTITM_TS_IPv4Network.backboneRouter[15].networkLayer.arp 	"ARP resolutions" 	0
scalar GTITM_TS_IPv4Network.backboneRouter[15].networkLayer.arp 	"failed ARP resolutions" 	0
scalar GTITM_TS_IPv4Network.backboneRouter[15].ppp[0].queue 	queuedrops:count 	0
attr source  qdrop
attr title  "packets dropped by queue, count"
scalar GTITM_TS_IPv4Network.backboneRouter[15].ppp[0].queue 	queuercvd:count 	0
attr source  qrcvd
attr title  "packets received by queue, count"
scalar GTITM_TS_IPv4Network.backboneRouter[15].ppp[1].queue 	queuedrops:count 	0
attr source  qdrop
attr title  "packets dropped by queue, count"
scalar GTITM_TS_IPv4Network.backboneRouter[15].ppp[1].queue 	queuercvd:count 	0
attr source  qrcvd
attr title  "packets received by queue, count"
scalar GTITM_TS_IPv4Network.backboneRouter[15].ppp[2].queue 	queuedrops:count 	0
attr source  qdrop
attr title  "packets dropped by queue, count"
scalar GTITM_TS_IPv4Network.backboneRouter[15].ppp[2].queue 	queuercvd:count 	0
attr source  qrcvd
attr title  "packets received by queue, count"
scalar GTITM_TS_IPv4Network.backboneRouter[15].ppp[3].queue 	queuedrops:count 	0
attr source  qdrop
attr title  "packets dropped by queue, count"
scalar GTITM_TS_IPv4Network.backboneRouter[15].ppp[3].queue 	queuercvd:count 	0
attr source  qrcvd
attr title  "packets received by queue, count"
scalar GTITM_TS_IPv4Network.backboneRouter[15].ppp[4].queue 	queuedrops:count 	0
attr source  qdrop
attr title  "packets dropped by queue, count"
scalar GTITM_TS_IPv4Network.backboneRouter[15].ppp[4].queue 	queuercvd:count 	0
attr source  qrcvd
attr title  "packets received by queue, count"
scalar GTITM_TS_IPv4Network.backboneRouter[15].ppp[5].queue 	queuedrops:count 	0
attr source  qdrop
attr title  "packets dropped by queue, count"
scalar GTITM_TS_IPv4Network.backboneRouter[15].ppp[5].queue 	queuercvd:count 	0
attr source  qrcvd
attr title  "packets received by queue, count"
scalar GTITM_TS_IPv4Network.backboneRouter[15].ppp[6].queue 	queuedrops:count 	0
attr source  qdrop
attr title  "packets dropped by queue, count"
scalar GTITM_TS_IPv4Network.backboneRouter[15].ppp[6].queue 	queuercvd:count 	0
attr source  qrcvd
attr title  "packets received by queue, count"
scalar GTITM_TS_IPv4Network.backboneRouter[15].ppp[7].queue 	queuedrops:count 	0
attr source  qdrop
attr title  "packets dropped by queue, count"
scalar GTITM_TS_IPv4Network.backboneRouter[15].ppp[7].queue 	queuercvd:count 	0
attr source  qrcvd
attr title  "packets received by queue, count"
scalar GTITM_TS_IPv4Network.backboneRouter[15].ppp[8].queue 	queuedrops:count 	0
attr source  qdrop
attr title  "packets dropped by queue, count"
scalar GTITM_TS_IPv4Network.backboneRouter[15].ppp[8].queue 	queuercvd:count 	0
attr source  qrcvd
attr title  "packets received by queue, count"
scalar GTITM_TS_IPv4Network.backboneRouter[15].ppp[9].queue 	queuedrops:count 	0
attr source  qdrop
attr title  "packets dropped by queue, count"
scalar GTITM_TS_IPv4Network.backboneRouter[15].ppp[9].queue 	queuercvd:count 	0
attr source  qrcvd
attr title  "packets received by queue, count"
scalar GTITM_TS_IPv4Network.backboneRouter[15].ppp[10].queue 	queuedrops:count 	0
attr source  qdrop
attr title  "packets dropped by queue, count"
scalar GTITM_TS_IPv4Network.backboneRouter[15].ppp[10].queue 	queuercvd:count 	0
attr source  qrcvd
attr title  "packets received by queue, count"
scalar GTITM_TS_IPv4Network.backboneRouter[15].ppp[11].queue 	queuedrops:count 	0
attr source  qdrop
attr title  "packets dropped by queue, count"
scalar GTITM_TS_IPv4Network.backboneRouter[15].ppp[11].queue 	queuercvd:count 	0
attr source  qrcvd
attr title  "packets received by queue, count"
scalar GTITM_TS_IPv4Network.backboneRouter[15].ppp[12].queue 	queuedrops:count 	0
attr source  qdrop
attr title  "packets dropped by queue, count"
scalar GTITM_TS_IPv4Network.backboneRouter[15].ppp[12].queue 	queuercvd:count 	0
attr source  qrcvd
attr title  "packets received by queue, count"
scalar GTITM_TS_IPv4Network.backboneRouter[16].networkLayer.ip 	"datagrams multicast" 	0
scalar GTITM_TS_IPv4Network.backboneRouter[16].networkLayer.ip 	"datagrams locally delivered" 	0
scalar GTITM_TS_IPv4Network.backboneRouter[16].networkLayer.ip 	"datagrams dropped" 	0
scalar GTITM_TS_IPv4Network.backboneRouter[16].networkLayer.ip 	"datagrams unroutable" 	0
scalar GTITM_TS_IPv4Network.backboneRouter[16].networkLayer.ip 	"datagrams forwarded" 	0
scalar GTITM_TS_IPv4Network.backboneRouter[16].networkLayer.arp 	"ARP requests sent" 	0
scalar GTITM_TS_IPv4Network.backboneRouter[16].networkLayer.arp 	"ARP replies sent" 	0
scalar GTITM_TS_IPv4Network.backboneRouter[16].networkLayer.arp 	"ARP resolutions" 	0
scalar GTITM_TS_IPv4Network.backboneRouter[16].networkLayer.arp 	"failed ARP resolutions" 	0
scalar GTITM_TS_IPv4Network.backboneRouter[16].ppp[0].queue 	queuedrops:count 	0
attr source  qdrop
attr title  "packets dropped by queue, count"
scalar GTITM_TS_IPv4Network.backboneRouter[16].ppp[0].queue 	queuercvd:count 	0
attr source  qrcvd
attr title  "packets received by queue, count"
scalar GTITM_TS_IPv4Network.backboneRouter[16].ppp[1].queue 	queuedrops:count 	0
attr source  qdrop
attr title  "packets dropped by queue, count"
scalar GTITM_TS_IPv4Network.backboneRouter[16].ppp[1].queue 	queuercvd:count 	0
attr source  qrcvd
attr title  "packets received by queue, count"
scalar GTITM_TS_IPv4Network.backboneRouter[16].ppp[2].queue 	queuedrops:count 	0
attr source  qdrop
attr title  "packets dropped by queue, count"
scalar GTITM_TS_IPv4Network.backboneRouter[16].ppp[2].queue 	queuercvd:count 	0
attr source  qrcvd
attr title  "packets received by queue, count"
scalar GTITM_TS_IPv4Network.backboneRouter[16].ppp[3].queue 	queuedrops:count 	0
attr source  qdrop
attr title  "packets dropped by queue, count"
scalar GTITM_TS_IPv4Network.backboneRouter[16].ppp[3].queue 	queuercvd:count 	0
attr source  qrcvd
attr title  "packets received by queue, count"
scalar GTITM_TS_IPv4Network.backboneRouter[16].ppp[4].queue 	queuedrops:count 	0
attr source  qdrop
attr title  "packets dropped by queue, count"
scalar GTITM_TS_IPv4Network.backboneRouter[16].ppp[4].queue 	queuercvd:count 	0
attr source  qrcvd
attr title  "packets received by queue, count"
scalar GTITM_TS_IPv4Network.backboneRouter[16].ppp[5].queue 	queuedrops:count 	0
attr source  qdrop
attr title  "packets dropped by queue, count"
scalar GTITM_TS_IPv4Network.backboneRouter[16].ppp[5].queue 	queuercvd:count 	0
attr source  qrcvd
attr title  "packets received by queue, count"
scalar GTITM_TS_IPv4Network.backboneRouter[16].ppp[6].queue 	queuedrops:count 	0
attr source  qdrop
attr title  "packets dropped by queue, count"
scalar GTITM_TS_IPv4Network.backboneRouter[16].ppp[6].queue 	queuercvd:count 	0
attr source  qrcvd
attr title  "packets received by queue, count"
scalar GTITM_TS_IPv4Network.backboneRouter[16].ppp[7].queue 	queuedrops:count 	0
attr source  qdrop
attr title  "packets dropped by queue, count"
scalar GTITM_TS_IPv4Network.backboneRouter[16].ppp[7].queue 	queuercvd:count 	0
attr source  qrcvd
attr title  "packets received by queue, count"
scalar GTITM_TS_IPv4Network.backboneRouter[16].ppp[8].queue 	queuedrops:count 	0
attr source  qdrop
attr title  "packets dropped by queue, count"
scalar GTITM_TS_IPv4Network.backboneRouter[16].ppp[8].queue 	queuercvd:count 	0
attr source  qrcvd
attr title  "packets received by queue, count"
scalar GTITM_TS_IPv4Network.backboneRouter[16].ppp[9].queue 	queuedrops:count 	0
attr source  qdrop
attr title  "packets dropped by queue, count"
scalar GTITM_TS_IPv4Network.backboneRouter[16].ppp[9].queue 	queuercvd:count 	0
attr source  qrcvd
attr title  "packets received by queue, count"
scalar GTITM_TS_IPv4Network.backboneRouter[16].ppp[10].queue 	queuedrops:count 	0
attr source  qdrop
attr title  "packets dropped by queue, count"
scalar GTITM_TS_IPv4Network.backboneRouter[16].ppp[10].queue 	queuercvd:count 	0
attr source  qrcvd
attr title  "packets received by queue, count"
scalar GTITM_TS_IPv4Network.backboneRouter[16].ppp[11].queue 	queuedrops:count 	0
attr source  qdrop
attr title  "packets dropped by queue, count"
scalar GTITM_TS_IPv4Network.backboneRouter[16].ppp[11].queue 	queuercvd:count 	0
attr source  qrcvd
attr title  "packets received by queue, count"
scalar GTITM_TS_IPv4Network.backboneRouter[16].ppp[12].queue 	queuedrops:count 	0
attr source  qdrop
attr title  "packets dropped by queue, count"
scalar GTITM_TS_IPv4Network.backboneRouter[16].ppp[12].queue 	queuercvd:count 	0
attr source  qrcvd
attr title  "packets received by queue, count"
scalar GTITM_TS_IPv4Network.backboneRouter[16].ppp[13].queue 	queuedrops:count 	0
attr source  qdrop
attr title  "packets dropped by queue, count"
scalar GTITM_TS_IPv4Network.backboneRouter[16].ppp[13].queue 	queuercvd:count 	0
attr source  qrcvd
attr title  "packets received by queue, count"
scalar GTITM_TS_IPv4Network.backboneRouter[16].ppp[14].queue 	queuedrops:count 	0
attr source  qdrop
attr title  "packets dropped by queue, count"
scalar GTITM_TS_IPv4Network.backboneRouter[16].ppp[14].queue 	queuercvd:count 	0
attr source  qrcvd
attr title  "packets received by queue, count"
scalar GTITM_TS_IPv4Network.backboneRouter[16].ppp[15].queue 	queuedrops:count 	0
attr source  qdrop
attr title  "packets dropped by queue, count"
scalar GTITM_TS_IPv4Network.backboneRouter[16].ppp[15].queue 	queuercvd:count 	0
attr source  qrcvd
attr title  "packets received by queue, count"
scalar GTITM_TS_IPv4Network.backboneRouter[17].networkLayer.ip 	"datagrams multicast" 	0
scalar GTITM_TS_IPv4Network.backboneRouter[17].networkLayer.ip 	"datagrams locally delivered" 	0
scalar GTITM_TS_IPv4Network.backboneRouter[17].networkLayer.ip 	"datagrams dropped" 	0
scalar GTITM_TS_IPv4Network.backboneRouter[17].networkLayer.ip 	"datagrams unroutable" 	0
scalar GTITM_TS_IPv4Network.backboneRouter[17].networkLayer.ip 	"datagrams forwarded" 	0
scalar GTITM_TS_IPv4Network.backboneRouter[17].networkLayer.arp 	"ARP requests sent" 	0
scalar GTITM_TS_IPv4Network.backboneRouter[17].networkLayer.arp 	"ARP replies sent" 	0
scalar GTITM_TS_IPv4Network.backboneRouter[17].networkLayer.arp 	"ARP resolutions" 	0
scalar GTITM_TS_IPv4Network.backboneRouter[17].networkLayer.arp 	"failed ARP resolutions" 	0
scalar GTITM_TS_IPv4Network.backboneRouter[17].ppp[0].queue 	queuedrops:count 	0
attr source  qdrop
attr title  "packets dropped by queue, count"
scalar GTITM_TS_IPv4Network.backboneRouter[17].ppp[0].queue 	queuercvd:count 	0
attr source  qrcvd
attr title  "packets received by queue, count"
scalar GTITM_TS_IPv4Network.backboneRouter[17].ppp[1].queue 	queuedrops:count 	0
attr source  qdrop
attr title  "packets dropped by queue, count"
scalar GTITM_TS_IPv4Network.backboneRouter[17].ppp[1].queue 	queuercvd:count 	0
attr source  qrcvd
attr title  "packets received by queue, count"
scalar GTITM_TS_IPv4Network.backboneRouter[17].ppp[2].queue 	queuedrops:count 	0
attr source  qdrop
attr title  "packets dropped by queue, count"
scalar GTITM_TS_IPv4Network.backboneRouter[17].ppp[2].queue 	queuercvd:count 	0
attr source  qrcvd
attr title  "packets received by queue, count"
scalar GTITM_TS_IPv4Network.backboneRouter[17].ppp[3].queue 	queuedrops:count 	0
attr source  qdrop
attr title  "packets dropped by queue, count"
scalar GTITM_TS_IPv4Network.backboneRouter[17].ppp[3].queue 	queuercvd:count 	0
attr source  qrcvd
attr title  "packets received by queue, count"
scalar GTITM_TS_IPv4Network.backboneRouter[17].ppp[4].queue 	queuedrops:count 	0
attr source  qdrop
attr title  "packets dropped by queue, count"
scalar GTITM_TS_IPv4Network.backboneRouter[17].ppp[4].queue 	queuercvd:count 	0
attr source  qrcvd
attr title  "packets received by queue, count"
scalar GTITM_TS_IPv4Network.backboneRouter[17].ppp[5].queue 	queuedrops:count 	0
attr source  qdrop
attr title  "packets dropped by queue, count"
scalar GTITM_TS_IPv4Network.backboneRouter[17].ppp[5].queue 	queuercvd:count 	0
attr source  qrcvd
attr title  "packets received by queue, count"
scalar GTITM_TS_IPv4Network.backboneRouter[17].ppp[6].queue 	queuedrops:count 	0
attr source  qdrop
attr title  "packets dropped by queue, count"
scalar GTITM_TS_IPv4Network.backboneRouter[17].ppp[6].queue 	queuercvd:count 	0
attr source  qrcvd
attr title  "packets received by queue, count"
scalar GTITM_TS_IPv4Network.backboneRouter[17].ppp[7].queue 	queuedrops:count 	0
attr source  qdrop
attr title  "packets dropped by queue, count"
scalar GTITM_TS_IPv4Network.backboneRouter[17].ppp[7].queue 	queuercvd:count 	0
attr source  qrcvd
attr title  "packets received by queue, count"
scalar GTITM_TS_IPv4Network.backboneRouter[17].ppp[8].queue 	queuedrops:count 	0
attr source  qdrop
attr title  "packets dropped by queue, count"
scalar GTITM_TS_IPv4Network.backboneRouter[17].ppp[8].queue 	queuercvd:count 	0
attr source  qrcvd
attr title  "packets received by queue, count"
scalar GTITM_TS_IPv4Network.backboneRouter[17].ppp[9].queue 	queuedrops:count 	0
attr source  qdrop
attr title  "packets dropped by queue, count"
scalar GTITM_TS_IPv4Network.backboneRouter[17].ppp[9].queue 	queuercvd:count 	0
attr source  qrcvd
attr title  "packets received by queue, count"
scalar GTITM_TS_IPv4Network.backboneRouter[17].ppp[10].queue 	queuedrops:count 	0
attr source  qdrop
attr title  "packets dropped by queue, count"
scalar GTITM_TS_IPv4Network.backboneRouter[17].ppp[10].queue 	queuercvd:count 	0
attr source  qrcvd
attr title  "packets received by queue, count"
scalar GTITM_TS_IPv4Network.backboneRouter[17].ppp[11].queue 	queuedrops:count 	0
attr source  qdrop
attr title  "packets dropped by queue, count"
scalar GTITM_TS_IPv4Network.backboneRouter[17].ppp[11].queue 	queuercvd:count 	0
attr source  qrcvd
attr title  "packets received by queue, count"
scalar GTITM_TS_IPv4Network.backboneRouter[17].ppp[12].queue 	queuedrops:count 	0
attr source  qdrop
attr title  "packets dropped by queue, count"
scalar GTITM_TS_IPv4Network.backboneRouter[17].ppp[12].queue 	queuercvd:count 	0
attr source  qrcvd
attr title  "packets received by queue, count"
scalar GTITM_TS_IPv4Network.backboneRouter[17].ppp[13].queue 	queuedrops:count 	0
attr source  qdrop
attr title  "packets dropped by queue, count"
scalar GTITM_TS_IPv4Network.backboneRouter[17].ppp[13].queue 	queuercvd:count 	0
attr source  qrcvd
attr title  "packets received by queue, count"
scalar GTITM_TS_IPv4Network.backboneRouter[17].ppp[14].queue 	queuedrops:count 	0
attr source  qdrop
attr title  "packets dropped by queue, count"
scalar GTITM_TS_IPv4Network.backboneRouter[17].ppp[14].queue 	queuercvd:count 	0
attr source  qrcvd
attr title  "packets received by queue, count"
scalar GTITM_TS_IPv4Network.backboneRouter[18].networkLayer.ip 	"datagrams multicast" 	0
scalar GTITM_TS_IPv4Network.backboneRouter[18].networkLayer.ip 	"datagrams locally delivered" 	0
scalar GTITM_TS_IPv4Network.backboneRouter[18].networkLayer.ip 	"datagrams dropped" 	0
scalar GTITM_TS_IPv4Network.backboneRouter[18].networkLayer.ip 	"datagrams unroutable" 	0
scalar GTITM_TS_IPv4Network.backboneRouter[18].networkLayer.ip 	"datagrams forwarded" 	0
scalar GTITM_TS_IPv4Network.backboneRouter[18].networkLayer.arp 	"ARP requests sent" 	0
scalar GTITM_TS_IPv4Network.backboneRouter[18].networkLayer.arp 	"ARP replies sent" 	0
scalar GTITM_TS_IPv4Network.backboneRouter[18].networkLayer.arp 	"ARP resolutions" 	0
scalar GTITM_TS_IPv4Network.backboneRouter[18].networkLayer.arp 	"failed ARP resolutions" 	0
scalar GTITM_TS_IPv4Network.backboneRouter[18].ppp[0].queue 	queuedrops:count 	0
attr source  qdrop
attr title  "packets dropped by queue, count"
scalar GTITM_TS_IPv4Network.backboneRouter[18].ppp[0].queue 	queuercvd:count 	0
attr source  qrcvd
[...]
attr title  "packets dropped by queue, count"
scalar GTITM_TS_IPv4Network.overlayTerminal-3[20].ppp[0].queue 	queuercvd:count 	8547
attr source  qrcvd
attr title  "packets received by queue, count"
scalar GTITM_TS_IPv4Network.overlayTerminal-3[21].tcpApp[0] 	bad.requests 	0
scalar GTITM_TS_IPv4Network.overlayTerminal-3[21].trackerClient 	"number of sessions" 	2
scalar GTITM_TS_IPv4Network.overlayTerminal-3[21].trackerClient 	"packets sent" 	2
scalar GTITM_TS_IPv4Network.overlayTerminal-3[21].trackerClient 	"packets rcvd" 	1
scalar GTITM_TS_IPv4Network.overlayTerminal-3[21].trackerClient 	"bytes sent" 	169
scalar GTITM_TS_IPv4Network.overlayTerminal-3[21].trackerClient 	"bytes rcvd" 	928
scalar GTITM_TS_IPv4Network.overlayTerminal-3[21].networkLayer.ip 	"datagrams multicast" 	0
scalar GTITM_TS_IPv4Network.overlayTerminal-3[21].networkLayer.ip 	"datagrams locally delivered" 	4336
scalar GTITM_TS_IPv4Network.overlayTerminal-3[21].networkLayer.ip 	"datagrams dropped" 	0
scalar GTITM_TS_IPv4Network.overlayTerminal-3[21].networkLayer.ip 	"datagrams unroutable" 	0
scalar GTITM_TS_IPv4Network.overlayTerminal-3[21].networkLayer.ip 	"datagrams forwarded" 	4326
scalar GTITM_TS_IPv4Network.overlayTerminal-3[21].networkLayer.arp 	"ARP requests sent" 	0
scalar GTITM_TS_IPv4Network.overlayTerminal-3[21].networkLayer.arp 	"ARP replies sent" 	0
scalar GTITM_TS_IPv4Network.overlayTerminal-3[21].networkLayer.arp 	"ARP resolutions" 	0
scalar GTITM_TS_IPv4Network.overlayTerminal-3[21].networkLayer.arp 	"failed ARP resolutions" 	0
scalar GTITM_TS_IPv4Network.overlayTerminal-3[21].ppp[0].queue 	queuedrops:count 	0
attr source  qdrop
attr title  "packets dropped by queue, count"
scalar GTITM_TS_IPv4Network.overlayTerminal-3[21].ppp[0].queue 	queuercvd:count 	4326
attr source  qrcvd
attr title  "packets received by queue, count"
scalar GTITM_TS_IPv4Network.overlayTerminal-3[22].tcpApp[0] 	bad.requests 	0
scalar GTITM_TS_IPv4Network.overlayTerminal-3[22].trackerClient 	"number of sessions" 	2
scalar GTITM_TS_IPv4Network.overlayTerminal-3[22].trackerClient 	"packets sent" 	2
scalar GTITM_TS_IPv4Network.overlayTerminal-3[22].trackerClient 	"packets rcvd" 	1
scalar GTITM_TS_IPv4Network.overlayTerminal-3[22].trackerClient 	"bytes sent" 	169
scalar GTITM_TS_IPv4Network.overlayTerminal-3[22].trackerClient 	"bytes rcvd" 	763
scalar GTITM_TS_IPv4Network.overlayTerminal-3[22].networkLayer.ip 	"datagrams multicast" 	0
scalar GTITM_TS_IPv4Network.overlayTerminal-3[22].networkLayer.ip 	"datagrams locally delivered" 	8663
scalar GTITM_TS_IPv4Network.overlayTerminal-3[22].networkLayer.ip 	"datagrams dropped" 	0
scalar GTITM_TS_IPv4Network.overlayTerminal-3[22].networkLayer.ip 	"datagrams unroutable" 	0
scalar GTITM_TS_IPv4Network.overlayTerminal-3[22].networkLayer.ip 	"datagrams forwarded" 	8638
scalar GTITM_TS_IPv4Network.overlayTerminal-3[22].networkLayer.arp 	"ARP requests sent" 	0
scalar GTITM_TS_IPv4Network.overlayTerminal-3[22].networkLayer.arp 	"ARP replies sent" 	0
scalar GTITM_TS_IPv4Network.overlayTerminal-3[22].networkLayer.arp 	"ARP resolutions" 	0
scalar GTITM_TS_IPv4Network.overlayTerminal-3[22].networkLayer.arp 	"failed ARP resolutions" 	0
scalar GTITM_TS_IPv4Network.overlayTerminal-3[22].ppp[0].queue 	queuedrops:count 	0
attr source  qdrop
attr title  "packets dropped by queue, count"
scalar GTITM_TS_IPv4Network.overlayTerminal-3[22].ppp[0].queue 	queuercvd:count 	8638
attr source  qrcvd
attr title  "packets received by queue, count"
scalar GTITM_TS_IPv4Network.overlayTerminal-3[23].tcpApp[0] 	bad.requests 	0
scalar GTITM_TS_IPv4Network.overlayTerminal-3[23].trackerClient 	"number of sessions" 	2
scalar GTITM_TS_IPv4Network.overlayTerminal-3[23].trackerClient 	"packets sent" 	2
scalar GTITM_TS_IPv4Network.overlayTerminal-3[23].trackerClient 	"packets rcvd" 	1
scalar GTITM_TS_IPv4Network.overlayTerminal-3[23].trackerClient 	"bytes sent" 	169
scalar GTITM_TS_IPv4Network.overlayTerminal-3[23].trackerClient 	"bytes rcvd" 	763
scalar GTITM_TS_IPv4Network.overlayTerminal-3[23].networkLayer.ip 	"datagrams multicast" 	0
scalar GTITM_TS_IPv4Network.overlayTerminal-3[23].networkLayer.ip 	"datagrams locally delivered" 	30684
scalar GTITM_TS_IPv4Network.overlayTerminal-3[23].networkLayer.ip 	"datagrams dropped" 	0
scalar GTITM_TS_IPv4Network.overlayTerminal-3[23].networkLayer.ip 	"datagrams unroutable" 	0
scalar GTITM_TS_IPv4Network.overlayTerminal-3[23].networkLayer.ip 	"datagrams forwarded" 	30580
scalar GTITM_TS_IPv4Network.overlayTerminal-3[23].networkLayer.arp 	"ARP requests sent" 	0
scalar GTITM_TS_IPv4Network.overlayTerminal-3[23].networkLayer.arp 	"ARP replies sent" 	0
scalar GTITM_TS_IPv4Network.overlayTerminal-3[23].networkLayer.arp 	"ARP resolutions" 	0
scalar GTITM_TS_IPv4Network.overlayTerminal-3[23].networkLayer.arp 	"failed ARP resolutions" 	0
scalar GTITM_TS_IPv4Network.overlayTerminal-3[23].ppp[0].queue 	queuedrops:count 	0
attr source  qdrop
attr title  "packets dropped by queue, count"
scalar GTITM_TS_IPv4Network.overlayTerminal-3[23].ppp[0].queue 	queuercvd:count 	30580
attr source  qrcvd
attr title  "packets received by queue, count"
scalar GTITM_TS_IPv4Network.overlayTerminal-3[24].tcpApp[0] 	bad.requests 	0
scalar GTITM_TS_IPv4Network.overlayTerminal-3[24].trackerClient 	"number of sessions" 	2
scalar GTITM_TS_IPv4Network.overlayTerminal-3[24].trackerClient 	"packets sent" 	2
scalar GTITM_TS_IPv4Network.overlayTerminal-3[24].trackerClient 	"packets rcvd" 	1
scalar GTITM_TS_IPv4Network.overlayTerminal-3[24].trackerClient 	"bytes sent" 	169
scalar GTITM_TS_IPv4Network.overlayTerminal-3[24].trackerClient 	"bytes rcvd" 	846
scalar GTITM_TS_IPv4Network.overlayTerminal-3[24].networkLayer.ip 	"datagrams multicast" 	0
scalar GTITM_TS_IPv4Network.overlayTerminal-3[24].networkLayer.ip 	"datagrams locally delivered" 	25089
scalar GTITM_TS_IPv4Network.overlayTerminal-3[24].networkLayer.ip 	"datagrams dropped" 	0
scalar GTITM_TS_IPv4Network.overlayTerminal-3[24].networkLayer.ip 	"datagrams unroutable" 	0
scalar GTITM_TS_IPv4Network.overlayTerminal-3[24].networkLayer.ip 	"datagrams forwarded" 	25027
scalar GTITM_TS_IPv4Network.overlayTerminal-3[24].networkLayer.arp 	"ARP requests sent" 	0
scalar GTITM_TS_IPv4Network.overlayTerminal-3[24].networkLayer.arp 	"ARP replies sent" 	0
scalar GTITM_TS_IPv4Network.overlayTerminal-3[24].networkLayer.arp 	"ARP resolutions" 	0
scalar GTITM_TS_IPv4Network.overlayTerminal-3[24].networkLayer.arp 	"failed ARP resolutions" 	0
scalar GTITM_TS_IPv4Network.overlayTerminal-3[24].ppp[0].queue 	queuedrops:count 	0
attr source  qdrop
attr title  "packets dropped by queue, count"
scalar GTITM_TS_IPv4Network.overlayTerminal-3[24].ppp[0].queue 	queuercvd:count 	25027
attr source  qrcvd
attr title  "packets received by queue, count"
scalar GTITM_TS_IPv4Network.overlayTerminal-3[25].tcpApp[0] 	bad.requests 	0
scalar GTITM_TS_IPv4Network.overlayTerminal-3[25].trackerClient 	"number of sessions" 	2
scalar GTITM_TS_IPv4Network.overlayTerminal-3[25].trackerClient 	"packets sent" 	2
scalar GTITM_TS_IPv4Network.overlayTerminal-3[25].trackerClient 	"packets rcvd" 	1
scalar GTITM_TS_IPv4Network.overlayTerminal-3[25].trackerClient 	"bytes sent" 	169
scalar GTITM_TS_IPv4Network.overlayTerminal-3[25].trackerClient 	"bytes rcvd" 	846
scalar GTITM_TS_IPv4Network.overlayTerminal-3[25].networkLayer.ip 	"datagrams multicast" 	0
scalar GTITM_TS_IPv4Network.overlayTerminal-3[25].networkLayer.ip 	"datagrams locally delivered" 	5834
scalar GTITM_TS_IPv4Network.overlayTerminal-3[25].networkLayer.ip 	"datagrams dropped" 	0
scalar GTITM_TS_IPv4Network.overlayTerminal-3[25].networkLayer.ip 	"datagrams unroutable" 	0
scalar GTITM_TS_IPv4Network.overlayTerminal-3[25].networkLayer.ip 	"datagrams forwarded" 	5817
scalar GTITM_TS_IPv4Network.overlayTerminal-3[25].networkLayer.arp 	"ARP requests sent" 	0
scalar GTITM_TS_IPv4Network.overlayTerminal-3[25].networkLayer.arp 	"ARP replies sent" 	0
scalar GTITM_TS_IPv4Network.overlayTerminal-3[25].networkLayer.arp 	"ARP resolutions" 	0
scalar GTITM_TS_IPv4Network.overlayTerminal-3[25].networkLayer.arp 	"failed ARP resolutions" 	0
scalar GTITM_TS_IPv4Network.overlayTerminal-3[25].ppp[0].queue 	queuedrops:count 	0
attr source  qdrop
attr title  "packets dropped by queue, count"
scalar GTITM_TS_IPv4Network.overlayTerminal-3[25].ppp[0].queue 	queuercvd:count 	5817
attr source  qrcvd
attr title  "packets received by queue, count"
scalar GTITM_TS_IPv4Network.overlayTerminal-3[26].tcpApp[0] 	bad.requests 	0
scalar GTITM_TS_IPv4Network.overlayTerminal-3[26].trackerClient 	"number of sessions" 	2
scalar GTITM_TS_IPv4Network.overlayTerminal-3[26].trackerClient 	"packets sent" 	2
scalar GTITM_TS_IPv4Network.overlayTerminal-3[26].trackerClient 	"packets rcvd" 	1
scalar GTITM_TS_IPv4Network.overlayTerminal-3[26].trackerClient 	"bytes sent" 	169
scalar GTITM_TS_IPv4Network.overlayTerminal-3[26].trackerClient 	"bytes rcvd" 	846
scalar GTITM_TS_IPv4Network.overlayTerminal-3[26].networkLayer.ip 	"datagrams multicast" 	0
scalar GTITM_TS_IPv4Network.overlayTerminal-3[26].networkLayer.ip 	"datagrams locally delivered" 	9424
scalar GTITM_TS_IPv4Network.overlayTerminal-3[26].networkLayer.ip 	"datagrams dropped" 	0
scalar GTITM_TS_IPv4Network.overlayTerminal-3[26].networkLayer.ip 	"datagrams unroutable" 	0
scalar GTITM_TS_IPv4Network.overlayTerminal-3[26].networkLayer.ip 	"datagrams forwarded" 	9403
scalar GTITM_TS_IPv4Network.overlayTerminal-3[26].networkLayer.arp 	"ARP requests sent" 	0
scalar GTITM_TS_IPv4Network.overlayTerminal-3[26].networkLayer.arp 	"ARP replies sent" 	0
scalar GTITM_TS_IPv4Network.overlayTerminal-3[26].networkLayer.arp 	"ARP resolutions" 	0
scalar GTITM_TS_IPv4Network.overlayTerminal-3[26].networkLayer.arp 	"failed ARP resolutions" 	0
scalar GTITM_TS_IPv4Network.overlayTerminal-3[26].ppp[0].queue 	queuedrops:count 	0
attr source  qdrop
attr title  "packets dropped by queue, count"
scalar GTITM_TS_IPv4Network.overlayTerminal-3[26].ppp[0].queue 	queuercvd:count 	9403
attr source  qrcvd
attr title  "packets received by queue, count"
scalar GTITM_TS_IPv4Network.overlayTerminal-3[27].tcpApp[0] 	bad.requests 	0
scalar GTITM_TS_IPv4Network.overlayTerminal-3[27].trackerClient 	"number of sessions" 	2
scalar GTITM_TS_IPv4Network.overlayTerminal-3[27].trackerClient 	"packets sent" 	2
scalar GTITM_TS_IPv4Network.overlayTerminal-3[27].trackerClient 	"packets rcvd" 	1
scalar GTITM_TS_IPv4Network.overlayTerminal-3[27].trackerClient 	"bytes sent" 	169
scalar GTITM_TS_IPv4Network.overlayTerminal-3[27].trackerClient 	"bytes rcvd" 	846
scalar GTITM_TS_IPv4Network.overlayTerminal-3[27].networkLayer.ip 	"datagrams multicast" 	0
scalar GTITM_TS_IPv4Network.overlayTerminal-3[27].networkLayer.ip 	"datagrams locally delivered" 	24680
scalar GTITM_TS_IPv4Network.overlayTerminal-3[27].networkLayer.ip 	"datagrams dropped" 	0
scalar GTITM_TS_IPv4Network.overlayTerminal-3[27].networkLayer.ip 	"datagrams unroutable" 	0
scalar GTITM_TS_IPv4Network.overlayTerminal-3[27].networkLayer.ip 	"datagrams forwarded" 	24613
scalar GTITM_TS_IPv4Network.overlayTerminal-3[27].networkLayer.arp 	"ARP requests sent" 	0
scalar GTITM_TS_IPv4Network.overlayTerminal-3[27].networkLayer.arp 	"ARP replies sent" 	0
scalar GTITM_TS_IPv4Network.overlayTerminal-3[27].networkLayer.arp 	"ARP resolutions" 	0
scalar GTITM_TS_IPv4Network.overlayTerminal-3[27].networkLayer.arp 	"failed ARP resolutions" 	0
scalar GTITM_TS_IPv4Network.overlayTerminal-3[27].ppp[0].queue 	queuedrops:count 	0
attr source  qdrop
attr title  "packets dropped by queue, count"
scalar GTITM_TS_IPv4Network.overlayTerminal-3[27].ppp[0].queue 	queuercvd:count 	24613
attr source  qrcvd
attr title  "packets received by queue, count"
scalar GTITM_TS_IPv4Network.overlayTerminal-3[28].tcpApp[0] 	bad.requests 	0
scalar GTITM_TS_IPv4Network.overlayTerminal-3[28].trackerClient 	"number of sessions" 	2
scalar GTITM_TS_IPv4Network.overlayTerminal-3[28].trackerClient 	"packets sent" 	2
scalar GTITM_TS_IPv4Network.overlayTerminal-3[28].trackerClient 	"packets rcvd" 	1
scalar GTITM_TS_IPv4Network.overlayTerminal-3[28].trackerClient 	"bytes sent" 	169
scalar GTITM_TS_IPv4Network.overlayTerminal-3[28].trackerClient 	"bytes rcvd" 	928
scalar GTITM_TS_IPv4Network.overlayTerminal-3[28].networkLayer.ip 	"datagrams multicast" 	0
scalar GTITM_TS_IPv4Network.overlayTerminal-3[28].networkLayer.ip 	"datagrams locally delivered" 	22444
scalar GTITM_TS_IPv4Network.overlayTerminal-3[28].networkLayer.ip 	"datagrams dropped" 	0
scalar GTITM_TS_IPv4Network.overlayTerminal-3[28].networkLayer.ip 	"datagrams unroutable" 	0
scalar GTITM_TS_IPv4Network.overlayTerminal-3[28].networkLayer.ip 	"datagrams forwarded" 	22430
scalar GTITM_TS_IPv4Network.overlayTerminal-3[28].networkLayer.arp 	"ARP requests sent" 	0
scalar GTITM_TS_IPv4Network.overlayTerminal-3[28].networkLayer.arp 	"ARP replies sent" 	0
scalar GTITM_TS_IPv4Network.overlayTerminal-3[28].networkLayer.arp 	"ARP resolutions" 	0
scalar GTITM_TS_IPv4Network.overlayTerminal-3[28].networkLayer.arp 	"failed ARP resolutions" 	0
scalar GTITM_TS_IPv4Network.overlayTerminal-3[28].ppp[0].queue 	queuedrops:count 	0
attr source  qdrop
attr title  "packets dropped by queue, count"
scalar GTITM_TS_IPv4Network.overlayTerminal-3[28].ppp[0].queue 	queuercvd:count 	22430
attr source  qrcvd
attr title  "packets received by queue, count"
scalar GTITM_TS_IPv4Network.overlayTerminal-3[29].tcpApp[0] 	bad.requests 	0
scalar GTITM_TS_IPv4Network.overlayTerminal-3[29].trackerClient 	"number of sessions" 	2
scalar GTITM_TS_IPv4Network.overlayTerminal-3[29].trackerClient 	"packets sent" 	2
scalar GTITM_TS_IPv4Network.overlayTerminal-3[29].trackerClient 	"packets rcvd" 	1
scalar GTITM_TS_IPv4Network.overlayTerminal-3[29].trackerClient 	"bytes sent" 	169
scalar GTITM_TS_IPv4Network.overlayTerminal-3[29].trackerClient 	"bytes rcvd" 	1010
scalar GTITM_TS_IPv4Network.overlayTerminal-3[29].networkLayer.ip 	"datagrams multicast" 	0
scalar GTITM_TS_IPv4Network.overlayTerminal-3[29].networkLayer.ip 	"datagrams locally delivered" 	11491
scalar GTITM_TS_IPv4Network.overlayTerminal-3[29].networkLayer.ip 	"datagrams dropped" 	0
scalar GTITM_TS_IPv4Network.overlayTerminal-3[29].networkLayer.ip 	"datagrams unroutable" 	0
scalar GTITM_TS_IPv4Network.overlayTerminal-3[29].networkLayer.ip 	"datagrams forwarded" 	11480
scalar GTITM_TS_IPv4Network.overlayTerminal-3[29].networkLayer.arp 	"ARP requests sent" 	0
scalar GTITM_TS_IPv4Network.overlayTerminal-3[29].networkLayer.arp 	"ARP replies sent" 	0
scalar GTITM_TS_IPv4Network.overlayTerminal-3[29].networkLayer.arp 	"ARP resolutions" 	0
scalar GTITM_TS_IPv4Network.overlayTerminal-3[29].networkLayer.arp 	"failed ARP resolutions" 	0
scalar GTITM_TS_IPv4Network.overlayTerminal-3[29].ppp[0].queue 	queuedrops:count 	0
attr source  qdrop
attr title  "packets dropped by queue, count"
scalar GTITM_TS_IPv4Network.overlayTerminal-3[29].ppp[0].queue 	queuercvd:count 	11480
attr source  qrcvd
attr title  "packets received by queue, count"
scalar GTITM_TS_IPv4Network.overlayTerminal-3[30].tcpApp[0] 	bad.requests 	0
scalar GTITM_TS_IPv4Network.overlayTerminal-3[30].trackerClient 	"number of sessions" 	2
scalar GTITM_TS_IPv4Network.overlayTerminal-3[30].trackerClient 	"packets sent" 	2
scalar GTITM_TS_IPv4Network.overlayTerminal-3[30].trackerClient 	"packets rcvd" 	1
scalar GTITM_TS_IPv4Network.overlayTerminal-3[30].trackerClient 	"bytes sent" 	169
scalar GTITM_TS_IPv4Network.overlayTerminal-3[30].trackerClient 	"bytes rcvd" 	1010
scalar GTITM_TS_IPv4Network.overlayTerminal-3[30].networkLayer.ip 	"datagrams multicast" 	0
scalar GTITM_TS_IPv4Network.overlayTerminal-3[30].networkLayer.ip 	"datagrams locally delivered" 	22504
scalar GTITM_TS_IPv4Network.overlayTerminal-3[30].networkLayer.ip 	"datagrams dropped" 	0
scalar GTITM_TS_IPv4Network.overlayTerminal-3[30].networkLayer.ip 	"datagrams unroutable" 	0
scalar GTITM_TS_IPv4Network.overlayTerminal-3[30].networkLayer.ip 	"datagrams forwarded" 	22547
scalar GTITM_TS_IPv4Network.overlayTerminal-3[30].networkLayer.arp 	"ARP requests sent" 	0
scalar GTITM_TS_IPv4Network.overlayTerminal-3[30].networkLayer.arp 	"ARP replies sent" 	0
scalar GTITM_TS_IPv4Network.overlayTerminal-3[30].networkLayer.arp 	"ARP resolutions" 	0
scalar GTITM_TS_IPv4Network.overlayTerminal-3[30].networkLayer.arp 	"failed ARP resolutions" 	0
scalar GTITM_TS_IPv4Network.overlayTerminal-3[30].ppp[0].queue 	queuedrops:count 	0
attr source  qdrop
attr title  "packets dropped by queue, count"
scalar GTITM_TS_IPv4Network.overlayTerminal-3[30].ppp[0].queue 	queuercvd:count 	22547
attr source  qrcvd
attr title  "packets received by queue, count"
scalar GTITM_TS_IPv4Network.overlayTerminal-3[31].tcpApp[0] 	bad.requests 	0
scalar GTITM_TS_IPv4Network.overlayTerminal-3[31].trackerClient 	"number of sessions" 	2
scalar GTITM_TS_IPv4Network.overlayTerminal-3[31].trackerClient 	"packets sent" 	2
scalar GTITM_TS_IPv4Network.overlayTerminal-3[31].trackerClient 	"packets rcvd" 	1
scalar GTITM_TS_IPv4Network.overlayTerminal-3[31].trackerClient 	"bytes sent" 	169
scalar GTITM_TS_IPv4Network.overlayTerminal-3[31].trackerClient 	"bytes rcvd" 	1092
scalar GTITM_TS_IPv4Network.overlayTerminal-3[31].networkLayer.ip 	"datagrams multicast" 	0
scalar GTITM_TS_IPv4Network.overlayTerminal-3[31].networkLayer.ip 	"datagrams locally delivered" 	9837
scalar GTITM_TS_IPv4Network.overlayTerminal-3[31].networkLayer.ip 	"datagrams dropped" 	0
scalar GTITM_TS_IPv4Network.overlayTerminal-3[31].networkLayer.ip 	"datagrams unroutable" 	0
scalar GTITM_TS_IPv4Network.overlayTerminal-3[31].networkLayer.ip 	"datagrams forwarded" 	9871
scalar GTITM_TS_IPv4Network.overlayTerminal-3[31].networkLayer.arp 	"ARP requests sent" 	0
scalar GTITM_TS_IPv4Network.overlayTerminal-3[31].networkLayer.arp 	"ARP replies sent" 	0
scalar GTITM_TS_IPv4Network.overlayTerminal-3[31].networkLayer.arp 	"ARP resolutions" 	0
scalar GTITM_TS_IPv4Network.overlayTerminal-3[31].networkLayer.arp 	"failed ARP resolutions" 	0
scalar GTITM_TS_IPv4Network.overlayTerminal-3[31].ppp[0].queue 	queuedrops:count 	0
attr source  qdrop
attr title  "packets dropped by queue, count"
scalar GTITM_TS_IPv4Network.overlayTerminal-3[31].ppp[0].queue 	queuercvd:count 	9871
attr source  qrcvd
attr title  "packets received by queue, count"
scalar GTITM_TS_IPv4Network.overlayTerminal-3[32].tcpApp[0] 	bad.requests 	0
scalar GTITM_TS_IPv4Network.overlayTerminal-3[32].trackerClient 	"number of sessions" 	2
scalar GTITM_TS_IPv4Network.overlayTerminal-3[32].trackerClient 	"packets sent" 	2
scalar GTITM_TS_IPv4Network.overlayTerminal-3[32].trackerClient 	"packets rcvd" 	1
scalar GTITM_TS_IPv4Network.overlayTerminal-3[32].trackerClient 	"bytes sent" 	169
scalar GTITM_TS_IPv4Network.overlayTerminal-3[32].trackerClient 	"bytes rcvd" 	1174
scalar GTITM_TS_IPv4Network.overlayTerminal-3[32].networkLayer.ip 	"datagrams multicast" 	0
scalar GTITM_TS_IPv4Network.overlayTerminal-3[32].networkLayer.ip 	"datagrams locally delivered" 	8468
scalar GTITM_TS_IPv4Network.overlayTerminal-3[32].networkLayer.ip 	"datagrams dropped" 	0
scalar GTITM_TS_IPv4Network.overlayTerminal-3[32].networkLayer.ip 	"datagrams unroutable" 	0
scalar GTITM_TS_IPv4Network.overlayTerminal-3[32].networkLayer.ip 	"datagrams forwarded" 	8520
scalar GTITM_TS_IPv4Network.overlayTerminal-3[32].networkLayer.arp 	"ARP requests sent" 	0
scalar GTITM_TS_IPv4Network.overlayTerminal-3[32].networkLayer.arp 	"ARP replies sent" 	0
scalar GTITM_TS_IPv4Network.overlayTerminal-3[32].networkLayer.arp 	"ARP resolutions" 	0
scalar GTITM_TS_IPv4Network.overlayTerminal-3[32].networkLayer.arp 	"failed ARP resolutions" 	0
scalar GTITM_TS_IPv4Network.overlayTerminal-3[32].ppp[0].queue 	queuedrops:count 	0
attr source  qdrop
attr title  "packets dropped by queue, count"
scalar GTITM_TS_IPv4Network.overlayTerminal-3[32].ppp[0].queue 	queuercvd:count 	8520
attr source  qrcvd
attr title  "packets received by queue, count"
scalar GTITM_TS_IPv4Network.globalObserver.globalStatistics 	"GlobalStatistics: Simulation Time" 	12298762.105513
